<?xml version="1.0" encoding="UTF-8"?>

<!-- generated on 2025-04-22 19:27:25 by Eclipse SUMO duarouter Version 1.22.0
<duarouterConfiguration xmlns:xsi="http://www.w3.org/2001/XMLSchema-instance" xsi:noNamespaceSchemaLocation="http://sumo.dlr.de/xsd/duarouterConfiguration.xsd">

    <input>
        <net-file value="C:\Users\bobbi\Documents\YEAR 3\sumo3\TESTS\C5E20L.net.xml"/>
        <route-files value="C:\Users\bobbi\Documents\YEAR 3\sumo3\TESTS\output_trips.trips.xml"/>
    </input>

    <output>
        <output-file value="C:\Users\bobbi\Documents\YEAR 3\sumo3\TESTS\C5E20L.rou.xml"/>
    </output>

    <report>
        <ignore-errors value="true"/>
    </report>

</duarouterConfiguration>
-->

<routes xmlns:xsi="http://www.w3.org/2001/XMLSchema-instance" xsi:noNamespaceSchemaLocation="http://sumo.dlr.de/xsd/routes_file.xsd">
    <vehicle id="2" depart="1.00">
        <route edges="E2 -E4"/>
    </vehicle>
    <vehicle id="3" depart="1.50">
        <route edges="NE0 -E0"/>
    </vehicle>
    <vehicle id="5" depart="2.50">
        <route edges="E0 -E2"/>
    </vehicle>
    <vehicle id="6" depart="3.00">
        <route edges="-E3 -E0"/>
    </vehicle>
    <vehicle id="8" depart="4.00">
        <route edges="E0 -E2"/>
    </vehicle>
    <vehicle id="9" depart="4.50">
        <route edges="NE0 -E0"/>
    </vehicle>
    <vehicle id="12" depart="6.00">
        <route edges="NE0 -E1"/>
    </vehicle>
    <vehicle id="13" depart="6.50">
        <route edges="-E3 -E0"/>
    </vehicle>
    <vehicle id="16" depart="8.00">
        <route edges="E1 E3"/>
    </vehicle>
    <vehicle id="17" depart="8.50">
        <route edges="E0 -E2"/>
    </vehicle>
    <vehicle id="22" depart="11.00">
        <route edges="-E3 -E1"/>
    </vehicle>
    <vehicle id="23" depart="11.50">
        <route edges="-E3 -E1"/>
    </vehicle>
    <vehicle id="27" depart="13.50">
        <route edges="E2 -E4"/>
    </vehicle>
    <vehicle id="29" depart="14.50">
        <route edges="-E3 -E1"/>
    </vehicle>
    <vehicle id="36" depart="18.00">
        <route edges="NE0 -E1"/>
    </vehicle>
    <vehicle id="41" depart="20.50">
        <route edges="E1 E3"/>
    </vehicle>
    <vehicle id="44" depart="22.00">
        <route edges="-E3 -E0"/>
    </vehicle>
    <vehicle id="47" depart="23.50">
        <route edges="-E3 -E1"/>
    </vehicle>
    <vehicle id="52" depart="26.00">
        <route edges="E0 -E4"/>
    </vehicle>
    <vehicle id="54" depart="27.00">
        <route edges="E1 E3"/>
    </vehicle>
    <vehicle id="55" depart="27.50">
        <route edges="NE0 -E1"/>
    </vehicle>
    <vehicle id="58" depart="29.00">
        <route edges="E0 -E4"/>
    </vehicle>
    <vehicle id="62" depart="31.00">
        <route edges="-E3 -E1"/>
    </vehicle>
    <vehicle id="70" depart="35.00">
        <route edges="E1 -E2"/>
    </vehicle>
    <vehicle id="76" depart="38.00">
        <route edges="E1 -E2"/>
    </vehicle>
    <vehicle id="77" depart="38.50">
        <route edges="-E3 -E1"/>
    </vehicle>
    <vehicle id="78" depart="39.00">
        <route edges="E0 -E2"/>
    </vehicle>
    <vehicle id="82" depart="41.00">
        <route edges="NE0 -E0"/>
    </vehicle>
    <vehicle id="83" depart="41.50">
        <route edges="E0 -E4"/>
    </vehicle>
    <vehicle id="87" depart="43.50">
        <route edges="NE0 -E0"/>
    </vehicle>
    <vehicle id="89" depart="44.50">
        <route edges="E1 -E2"/>
    </vehicle>
    <vehicle id="90" depart="45.00">
        <route edges="E2 -E4"/>
    </vehicle>
    <vehicle id="91" depart="45.50">
        <route edges="NE0 -E0"/>
    </vehicle>
    <vehicle id="93" depart="46.50">
        <route edges="NE0 -E1"/>
    </vehicle>
    <vehicle id="97" depart="48.50">
        <route edges="E1 E3"/>
    </vehicle>
    <vehicle id="101" depart="50.50">
        <route edges="NE0 -E0"/>
    </vehicle>
    <vehicle id="105" depart="52.50">
        <route edges="E0 -E4"/>
    </vehicle>
    <vehicle id="106" depart="53.00">
        <route edges="E1 -E2"/>
    </vehicle>
    <vehicle id="109" depart="54.50">
        <route edges="-E3 -E1"/>
    </vehicle>
    <vehicle id="113" depart="56.50">
        <route edges="E1 E3"/>
    </vehicle>
    <vehicle id="115" depart="57.50">
        <route edges="-E3 -E0"/>
    </vehicle>
    <vehicle id="118" depart="59.00">
        <route edges="NE0 -E1"/>
    </vehicle>
    <vehicle id="120" depart="60.00">
        <route edges="E1 -E2"/>
    </vehicle>
    <vehicle id="121" depart="60.50">
        <route edges="E1 E3"/>
    </vehicle>
    <vehicle id="122" depart="61.00">
        <route edges="E0 -E4"/>
    </vehicle>
    <vehicle id="125" depart="62.50">
        <route edges="E0 -E4"/>
    </vehicle>
    <vehicle id="128" depart="64.00">
        <route edges="-E3 -E1"/>
    </vehicle>
    <vehicle id="133" depart="66.50">
        <route edges="E2 E3"/>
    </vehicle>
    <vehicle id="135" depart="67.50">
        <route edges="NE0 -E1"/>
    </vehicle>
    <vehicle id="136" depart="68.00">
        <route edges="E2 E3"/>
    </vehicle>
    <vehicle id="137" depart="68.50">
        <route edges="-E3 -E0"/>
    </vehicle>
    <vehicle id="139" depart="69.50">
        <route edges="E0 -E4"/>
    </vehicle>
    <vehicle id="142" depart="71.00">
        <route edges="E1 E3"/>
    </vehicle>
    <vehicle id="143" depart="71.50">
        <route edges="NE0 -E0"/>
    </vehicle>
    <vehicle id="152" depart="76.00">
        <route edges="-E3 -E0"/>
    </vehicle>
    <vehicle id="154" depart="77.00">
        <route edges="E2 E3"/>
    </vehicle>
    <vehicle id="155" depart="77.50">
        <route edges="NE0 -E1"/>
    </vehicle>
    <vehicle id="157" depart="78.50">
        <route edges="E2 E3"/>
    </vehicle>
    <vehicle id="165" depart="82.50">
        <route edges="NE0 -E1"/>
    </vehicle>
    <vehicle id="171" depart="85.50">
        <route edges="-E3 -E0"/>
    </vehicle>
    <vehicle id="173" depart="86.50">
        <route edges="NE0 -E1"/>
    </vehicle>
    <vehicle id="176" depart="88.00">
        <route edges="NE0 -E0"/>
    </vehicle>
    <vehicle id="177" depart="88.50">
        <route edges="NE0 -E0"/>
    </vehicle>
    <vehicle id="178" depart="89.00">
        <route edges="NE0 -E1"/>
    </vehicle>
    <vehicle id="182" depart="91.00">
        <route edges="E0 -E2"/>
    </vehicle>
    <vehicle id="183" depart="91.50">
        <route edges="E0 -E4"/>
    </vehicle>
    <vehicle id="186" depart="93.00">
        <route edges="E2 -E4"/>
    </vehicle>
    <vehicle id="191" depart="95.50">
        <route edges="E0 -E2"/>
    </vehicle>
    <vehicle id="196" depart="98.00">
        <route edges="E0 -E2"/>
    </vehicle>
    <vehicle id="197" depart="98.50">
        <route edges="-E3 -E1"/>
    </vehicle>
    <vehicle id="198" depart="99.00">
        <route edges="E1 -E2"/>
    </vehicle>
    <vehicle id="201" depart="100.50">
        <route edges="E1 E3"/>
    </vehicle>
    <vehicle id="207" depart="103.50">
        <route edges="-E3 -E0"/>
    </vehicle>
    <vehicle id="208" depart="104.00">
        <route edges="E0 -E2"/>
    </vehicle>
    <vehicle id="209" depart="104.50">
        <route edges="NE0 -E0"/>
    </vehicle>
    <vehicle id="214" depart="107.00">
        <route edges="E2 -E4"/>
    </vehicle>
    <vehicle id="219" depart="109.50">
        <route edges="E1 E3"/>
    </vehicle>
    <vehicle id="220" depart="110.00">
        <route edges="E2 E3"/>
    </vehicle>
    <vehicle id="221" depart="110.50">
        <route edges="E1 E3"/>
    </vehicle>
    <vehicle id="227" depart="113.50">
        <route edges="E0 -E4"/>
    </vehicle>
    <vehicle id="230" depart="115.00">
        <route edges="-E3 -E1"/>
    </vehicle>
    <vehicle id="233" depart="116.50">
        <route edges="E0 -E4"/>
    </vehicle>
    <vehicle id="235" depart="117.50">
        <route edges="E1 -E2"/>
    </vehicle>
    <vehicle id="237" depart="118.50">
        <route edges="E1 E3"/>
    </vehicle>
    <vehicle id="241" depart="120.50">
        <route edges="E0 -E4"/>
    </vehicle>
    <vehicle id="247" depart="123.50">
        <route edges="E0 -E4"/>
    </vehicle>
    <vehicle id="251" depart="125.50">
        <route edges="E0 -E2"/>
    </vehicle>
    <vehicle id="254" depart="127.00">
        <route edges="-E3 -E1"/>
    </vehicle>
    <vehicle id="257" depart="128.50">
        <route edges="E2 E3"/>
    </vehicle>
    <vehicle id="260" depart="130.00">
        <route edges="NE0 -E1"/>
    </vehicle>
    <vehicle id="261" depart="130.50">
        <route edges="E2 -E4"/>
    </vehicle>
    <vehicle id="262" depart="131.00">
        <route edges="E2 -E4"/>
    </vehicle>
    <vehicle id="263" depart="131.50">
        <route edges="NE0 -E0"/>
    </vehicle>
    <vehicle id="264" depart="132.00">
        <route edges="-E3 -E0"/>
    </vehicle>
    <vehicle id="267" depart="133.50">
        <route edges="E2 -E4"/>
    </vehicle>
    <vehicle id="271" depart="135.50">
        <route edges="-E3 -E0"/>
    </vehicle>
    <vehicle id="272" depart="136.00">
        <route edges="E0 -E4"/>
    </vehicle>
    <vehicle id="273" depart="136.50">
        <route edges="NE0 -E1"/>
    </vehicle>
    <vehicle id="275" depart="137.50">
        <route edges="E2 -E4"/>
    </vehicle>
    <vehicle id="284" depart="142.00">
        <route edges="E2 E3"/>
    </vehicle>
    <vehicle id="286" depart="143.00">
        <route edges="E2 E3"/>
    </vehicle>
    <vehicle id="288" depart="144.00">
        <route edges="E1 -E2"/>
    </vehicle>
    <vehicle id="291" depart="145.50">
        <route edges="NE0 -E0"/>
    </vehicle>
    <vehicle id="292" depart="146.00">
        <route edges="NE0 -E1"/>
    </vehicle>
    <vehicle id="295" depart="147.50">
        <route edges="NE0 -E0"/>
    </vehicle>
    <vehicle id="296" depart="148.00">
        <route edges="E0 -E4"/>
    </vehicle>
    <vehicle id="302" depart="151.00">
        <route edges="E2 -E4"/>
    </vehicle>
    <vehicle id="304" depart="152.00">
        <route edges="-E3 -E1"/>
    </vehicle>
    <vehicle id="306" depart="153.00">
        <route edges="E1 -E2"/>
    </vehicle>
    <vehicle id="307" depart="153.50">
        <route edges="E1 -E2"/>
    </vehicle>
    <vehicle id="311" depart="155.50">
        <route edges="-E3 -E0"/>
    </vehicle>
    <vehicle id="313" depart="156.50">
        <route edges="-E3 -E1"/>
    </vehicle>
    <vehicle id="317" depart="158.50">
        <route edges="-E3 -E1"/>
    </vehicle>
    <vehicle id="318" depart="159.00">
        <route edges="-E3 -E0"/>
    </vehicle>
    <vehicle id="324" depart="162.00">
        <route edges="E1 -E2"/>
    </vehicle>
    <vehicle id="325" depart="162.50">
        <route edges="-E3 -E0"/>
    </vehicle>
    <vehicle id="329" depart="164.50">
        <route edges="-E3 -E0"/>
    </vehicle>
    <vehicle id="331" depart="165.50">
        <route edges="NE0 -E0"/>
    </vehicle>
    <vehicle id="332" depart="166.00">
        <route edges="E2 -E4"/>
    </vehicle>
    <vehicle id="334" depart="167.00">
        <route edges="E1 -E2"/>
    </vehicle>
    <vehicle id="335" depart="167.50">
        <route edges="E1 E3"/>
    </vehicle>
    <vehicle id="336" depart="168.00">
        <route edges="NE0 -E1"/>
    </vehicle>
    <vehicle id="337" depart="168.50">
        <route edges="E2 -E4"/>
    </vehicle>
    <vehicle id="338" depart="169.00">
        <route edges="E2 E3"/>
    </vehicle>
    <vehicle id="341" depart="170.50">
        <route edges="-E3 -E0"/>
    </vehicle>
    <vehicle id="344" depart="172.00">
        <route edges="E0 -E4"/>
    </vehicle>
    <vehicle id="346" depart="173.00">
        <route edges="E2 E3"/>
    </vehicle>
    <vehicle id="347" depart="173.50">
        <route edges="E2 -E4"/>
    </vehicle>
    <vehicle id="348" depart="174.00">
        <route edges="E2 E3"/>
    </vehicle>
    <vehicle id="349" depart="174.50">
        <route edges="E1 -E2"/>
    </vehicle>
    <vehicle id="350" depart="175.00">
        <route edges="E2 E3"/>
    </vehicle>
    <vehicle id="351" depart="175.50">
        <route edges="NE0 -E0"/>
    </vehicle>
    <vehicle id="352" depart="176.00">
        <route edges="-E3 -E1"/>
    </vehicle>
    <vehicle id="355" depart="177.50">
        <route edges="E2 -E4"/>
    </vehicle>
    <vehicle id="366" depart="183.00">
        <route edges="NE0 -E0"/>
    </vehicle>
    <vehicle id="370" depart="185.00">
        <route edges="E2 E3"/>
    </vehicle>
    <vehicle id="371" depart="185.50">
        <route edges="E0 -E4"/>
    </vehicle>
    <vehicle id="376" depart="188.00">
        <route edges="E1 -E2"/>
    </vehicle>
    <vehicle id="378" depart="189.00">
        <route edges="E1 -E2"/>
    </vehicle>
    <vehicle id="379" depart="189.50">
        <route edges="-E3 -E1"/>
    </vehicle>
    <vehicle id="380" depart="190.00">
        <route edges="E2 -E4"/>
    </vehicle>
    <vehicle id="382" depart="191.00">
        <route edges="E1 E3"/>
    </vehicle>
    <vehicle id="393" depart="196.50">
        <route edges="NE0 -E1"/>
    </vehicle>
    <vehicle id="397" depart="198.50">
        <route edges="E0 -E4"/>
    </vehicle>
    <vehicle id="398" depart="199.00">
        <route edges="E1 E3"/>
    </vehicle>
    <vehicle id="399" depart="199.50">
        <route edges="E1 E3"/>
    </vehicle>
    <vehicle id="401" depart="200.50">
        <route edges="E1 E3"/>
    </vehicle>
    <vehicle id="404" depart="202.00">
        <route edges="E1 -E2"/>
    </vehicle>
    <vehicle id="409" depart="204.50">
        <route edges="E2 -E4"/>
    </vehicle>
    <vehicle id="410" depart="205.00">
        <route edges="NE0 -E1"/>
    </vehicle>
    <vehicle id="411" depart="205.50">
        <route edges="E2 E3"/>
    </vehicle>
    <vehicle id="414" depart="207.00">
        <route edges="E1 E3"/>
    </vehicle>
    <vehicle id="416" depart="208.00">
        <route edges="E1 -E2"/>
    </vehicle>
    <vehicle id="419" depart="209.50">
        <route edges="E1 E3"/>
    </vehicle>
    <vehicle id="420" depart="210.00">
        <route edges="E0 -E4"/>
    </vehicle>
    <vehicle id="421" depart="210.50">
        <route edges="E2 E3"/>
    </vehicle>
    <vehicle id="424" depart="212.00">
        <route edges="E2 -E4"/>
    </vehicle>
    <vehicle id="425" depart="212.50">
        <route edges="NE0 -E0"/>
    </vehicle>
    <vehicle id="431" depart="215.50">
        <route edges="E2 E3"/>
    </vehicle>
    <vehicle id="436" depart="218.00">
        <route edges="-E3 -E0"/>
    </vehicle>
    <vehicle id="444" depart="222.00">
        <route edges="E0 -E2"/>
    </vehicle>
    <vehicle id="447" depart="223.50">
        <route edges="-E3 -E1"/>
    </vehicle>
    <vehicle id="449" depart="224.50">
        <route edges="E1 -E2"/>
    </vehicle>
    <vehicle id="450" depart="225.00">
        <route edges="NE0 -E1"/>
    </vehicle>
    <vehicle id="452" depart="226.00">
        <route edges="E0 -E2"/>
    </vehicle>
    <vehicle id="453" depart="226.50">
        <route edges="E2 -E4"/>
    </vehicle>
    <vehicle id="455" depart="227.50">
        <route edges="E1 E3"/>
    </vehicle>
    <vehicle id="456" depart="228.00">
        <route edges="E0 -E4"/>
    </vehicle>
    <vehicle id="458" depart="229.00">
        <route edges="E2 -E4"/>
    </vehicle>
    <vehicle id="459" depart="229.50">
        <route edges="E2 -E4"/>
    </vehicle>
    <vehicle id="460" depart="230.00">
        <route edges="E2 E3"/>
    </vehicle>
    <vehicle id="461" depart="230.50">
        <route edges="E2 E3"/>
    </vehicle>
    <vehicle id="463" depart="231.50">
        <route edges="E1 -E2"/>
    </vehicle>
    <vehicle id="465" depart="232.50">
        <route edges="E0 -E4"/>
    </vehicle>
    <vehicle id="466" depart="233.00">
        <route edges="-E3 -E0"/>
    </vehicle>
    <vehicle id="467" depart="233.50">
        <route edges="E1 E3"/>
    </vehicle>
    <vehicle id="468" depart="234.00">
        <route edges="E1 E3"/>
    </vehicle>
    <vehicle id="469" depart="234.50">
        <route edges="NE0 -E1"/>
    </vehicle>
    <vehicle id="473" depart="236.50">
        <route edges="NE0 -E0"/>
    </vehicle>
    <vehicle id="475" depart="237.50">
        <route edges="E2 E3"/>
    </vehicle>
    <vehicle id="477" depart="238.50">
        <route edges="E0 -E4"/>
    </vehicle>
    <vehicle id="482" depart="241.00">
        <route edges="-E3 -E1"/>
    </vehicle>
    <vehicle id="484" depart="242.00">
        <route edges="E1 E3"/>
    </vehicle>
    <vehicle id="487" depart="243.50">
        <route edges="E0 -E2"/>
    </vehicle>
    <vehicle id="489" depart="244.50">
        <route edges="E0 -E2"/>
    </vehicle>
    <vehicle id="492" depart="246.00">
        <route edges="E2 -E4"/>
    </vehicle>
    <vehicle id="496" depart="248.00">
        <route edges="E1 -E2"/>
    </vehicle>
    <vehicle id="497" depart="248.50">
        <route edges="NE0 -E0"/>
    </vehicle>
    <vehicle id="498" depart="249.00">
        <route edges="E0 -E2"/>
    </vehicle>
    <vehicle id="501" depart="250.50">
        <route edges="E1 E3"/>
    </vehicle>
    <vehicle id="503" depart="251.50">
        <route edges="-E3 -E0"/>
    </vehicle>
    <vehicle id="505" depart="252.50">
        <route edges="E2 -E4"/>
    </vehicle>
    <vehicle id="511" depart="255.50">
        <route edges="NE0 -E1"/>
    </vehicle>
    <vehicle id="514" depart="257.00">
        <route edges="-E3 -E0"/>
    </vehicle>
    <vehicle id="519" depart="259.50">
        <route edges="-E3 -E0"/>
    </vehicle>
    <vehicle id="524" depart="262.00">
        <route edges="NE0 -E0"/>
    </vehicle>
    <vehicle id="525" depart="262.50">
        <route edges="E2 E3"/>
    </vehicle>
    <vehicle id="526" depart="263.00">
        <route edges="E1 -E2"/>
    </vehicle>
    <vehicle id="527" depart="263.50">
        <route edges="NE0 -E0"/>
    </vehicle>
    <vehicle id="528" depart="264.00">
        <route edges="E1 -E2"/>
    </vehicle>
    <vehicle id="530" depart="265.00">
        <route edges="NE0 -E0"/>
    </vehicle>
    <vehicle id="532" depart="266.00">
        <route edges="-E3 -E1"/>
    </vehicle>
    <vehicle id="535" depart="267.50">
        <route edges="E1 -E2"/>
    </vehicle>
    <vehicle id="537" depart="268.50">
        <route edges="E2 E3"/>
    </vehicle>
    <vehicle id="538" depart="269.00">
        <route edges="E2 -E4"/>
    </vehicle>
    <vehicle id="541" depart="270.50">
        <route edges="E0 -E2"/>
    </vehicle>
    <vehicle id="545" depart="272.50">
        <route edges="NE0 -E0"/>
    </vehicle>
    <vehicle id="546" depart="273.00">
        <route edges="NE0 -E0"/>
    </vehicle>
    <vehicle id="549" depart="274.50">
        <route edges="E1 -E2"/>
    </vehicle>
    <vehicle id="551" depart="275.50">
        <route edges="E0 -E4"/>
    </vehicle>
    <vehicle id="552" depart="276.00">
        <route edges="E2 E3"/>
    </vehicle>
    <vehicle id="553" depart="276.50">
        <route edges="E2 E3"/>
    </vehicle>
    <vehicle id="558" depart="279.00">
        <route edges="E0 -E4"/>
    </vehicle>
    <vehicle id="559" depart="279.50">
        <route edges="E1 E3"/>
    </vehicle>
    <vehicle id="572" depart="286.00">
        <route edges="E0 -E4"/>
    </vehicle>
    <vehicle id="574" depart="287.00">
        <route edges="-E3 -E0"/>
    </vehicle>
    <vehicle id="583" depart="291.50">
        <route edges="E0 -E2"/>
    </vehicle>
    <vehicle id="584" depart="292.00">
        <route edges="-E3 -E1"/>
    </vehicle>
    <vehicle id="588" depart="294.00">
        <route edges="-E3 -E1"/>
    </vehicle>
    <vehicle id="592" depart="296.00">
        <route edges="-E3 -E0"/>
    </vehicle>
    <vehicle id="594" depart="297.00">
        <route edges="E1 -E2"/>
    </vehicle>
    <vehicle id="596" depart="298.00">
        <route edges="-E3 -E0"/>
    </vehicle>
    <vehicle id="598" depart="299.00">
        <route edges="E2 E3"/>
    </vehicle>
    <vehicle id="599" depart="299.50">
        <route edges="NE0 -E0"/>
    </vehicle>
    <vehicle id="600" depart="300.00">
        <route edges="NE0 -E1"/>
    </vehicle>
    <vehicle id="601" depart="300.50">
        <route edges="E1 -E2"/>
    </vehicle>
    <vehicle id="606" depart="303.00">
        <route edges="NE0 -E1"/>
    </vehicle>
    <vehicle id="607" depart="303.50">
        <route edges="E2 E3"/>
    </vehicle>
    <vehicle id="608" depart="304.00">
        <route edges="NE0 -E1"/>
    </vehicle>
    <vehicle id="609" depart="304.50">
        <route edges="-E3 -E0"/>
    </vehicle>
    <vehicle id="610" depart="305.00">
        <route edges="E2 -E4"/>
    </vehicle>
    <vehicle id="613" depart="306.50">
        <route edges="E2 -E4"/>
    </vehicle>
    <vehicle id="614" depart="307.00">
        <route edges="E1 E3"/>
    </vehicle>
    <vehicle id="616" depart="308.00">
        <route edges="E2 E3"/>
    </vehicle>
    <vehicle id="621" depart="310.50">
        <route edges="E0 -E2"/>
    </vehicle>
    <vehicle id="625" depart="312.50">
        <route edges="E1 -E2"/>
    </vehicle>
    <vehicle id="629" depart="314.50">
        <route edges="E0 -E2"/>
    </vehicle>
    <vehicle id="630" depart="315.00">
        <route edges="-E3 -E0"/>
    </vehicle>
    <vehicle id="632" depart="316.00">
        <route edges="E0 -E4"/>
    </vehicle>
    <vehicle id="634" depart="317.00">
        <route edges="E0 -E2"/>
    </vehicle>
    <vehicle id="635" depart="317.50">
        <route edges="E1 -E2"/>
    </vehicle>
    <vehicle id="636" depart="318.00">
        <route edges="-E3 -E1"/>
    </vehicle>
    <vehicle id="637" depart="318.50">
        <route edges="E0 -E2"/>
    </vehicle>
    <vehicle id="638" depart="319.00">
        <route edges="E0 -E2"/>
    </vehicle>
    <vehicle id="639" depart="319.50">
        <route edges="E2 -E4"/>
    </vehicle>
    <vehicle id="640" depart="320.00">
        <route edges="-E3 -E0"/>
    </vehicle>
    <vehicle id="642" depart="321.00">
        <route edges="E2 -E4"/>
    </vehicle>
    <vehicle id="644" depart="322.00">
        <route edges="E0 -E2"/>
    </vehicle>
    <vehicle id="645" depart="322.50">
        <route edges="-E3 -E1"/>
    </vehicle>
    <vehicle id="647" depart="323.50">
        <route edges="E0 -E2"/>
    </vehicle>
    <vehicle id="648" depart="324.00">
        <route edges="NE0 -E1"/>
    </vehicle>
    <vehicle id="649" depart="324.50">
        <route edges="E0 -E4"/>
    </vehicle>
    <vehicle id="655" depart="327.50">
        <route edges="-E3 -E1"/>
    </vehicle>
    <vehicle id="661" depart="330.50">
        <route edges="-E3 -E1"/>
    </vehicle>
    <vehicle id="665" depart="332.50">
        <route edges="NE0 -E0"/>
    </vehicle>
    <vehicle id="666" depart="333.00">
        <route edges="E1 -E2"/>
    </vehicle>
    <vehicle id="672" depart="336.00">
        <route edges="NE0 -E1"/>
    </vehicle>
    <vehicle id="675" depart="337.50">
        <route edges="E0 -E2"/>
    </vehicle>
    <vehicle id="677" depart="338.50">
        <route edges="NE0 -E0"/>
    </vehicle>
    <vehicle id="678" depart="339.00">
        <route edges="E0 -E4"/>
    </vehicle>
    <vehicle id="681" depart="340.50">
        <route edges="NE0 -E1"/>
    </vehicle>
    <vehicle id="683" depart="341.50">
        <route edges="NE0 -E0"/>
    </vehicle>
    <vehicle id="684" depart="342.00">
        <route edges="E1 E3"/>
    </vehicle>
    <vehicle id="685" depart="342.50">
        <route edges="E0 -E2"/>
    </vehicle>
    <vehicle id="691" depart="345.50">
        <route edges="E2 -E4"/>
    </vehicle>
    <vehicle id="692" depart="346.00">
        <route edges="-E3 -E1"/>
    </vehicle>
    <vehicle id="696" depart="348.00">
        <route edges="-E3 -E1"/>
    </vehicle>
    <vehicle id="699" depart="349.50">
        <route edges="-E3 -E1"/>
    </vehicle>
    <vehicle id="707" depart="353.50">
        <route edges="E0 -E2"/>
    </vehicle>
    <vehicle id="709" depart="354.50">
        <route edges="NE0 -E0"/>
    </vehicle>
    <vehicle id="710" depart="355.00">
        <route edges="E1 -E2"/>
    </vehicle>
    <vehicle id="712" depart="356.00">
        <route edges="E0 -E2"/>
    </vehicle>
    <vehicle id="713" depart="356.50">
        <route edges="E2 E3"/>
    </vehicle>
    <vehicle id="716" depart="358.00">
        <route edges="E2 -E4"/>
    </vehicle>
    <vehicle id="717" depart="358.50">
        <route edges="E2 -E4"/>
    </vehicle>
    <vehicle id="719" depart="359.50">
        <route edges="E1 E3"/>
    </vehicle>
    <vehicle id="722" depart="361.00">
        <route edges="E2 E3"/>
    </vehicle>
    <vehicle id="725" depart="362.50">
        <route edges="-E3 -E0"/>
    </vehicle>
    <vehicle id="727" depart="363.50">
        <route edges="E1 E3"/>
    </vehicle>
    <vehicle id="730" depart="365.00">
        <route edges="E0 -E4"/>
    </vehicle>
    <vehicle id="731" depart="365.50">
        <route edges="NE0 -E1"/>
    </vehicle>
    <vehicle id="732" depart="366.00">
        <route edges="-E3 -E1"/>
    </vehicle>
    <vehicle id="734" depart="367.00">
        <route edges="NE0 -E1"/>
    </vehicle>
    <vehicle id="736" depart="368.00">
        <route edges="E1 E3"/>
    </vehicle>
    <vehicle id="737" depart="368.50">
        <route edges="E1 E3"/>
    </vehicle>
    <vehicle id="739" depart="369.50">
        <route edges="E2 E3"/>
    </vehicle>
    <vehicle id="742" depart="371.00">
        <route edges="E0 -E4"/>
    </vehicle>
    <vehicle id="745" depart="372.50">
        <route edges="NE0 -E1"/>
    </vehicle>
    <vehicle id="746" depart="373.00">
        <route edges="NE0 -E1"/>
    </vehicle>
    <vehicle id="750" depart="375.00">
        <route edges="E2 E3"/>
    </vehicle>
    <vehicle id="756" depart="378.00">
        <route edges="E2 E3"/>
    </vehicle>
    <vehicle id="757" depart="378.50">
        <route edges="E0 -E4"/>
    </vehicle>
    <vehicle id="758" depart="379.00">
        <route edges="E1 -E2"/>
    </vehicle>
    <vehicle id="759" depart="379.50">
        <route edges="E0 -E4"/>
    </vehicle>
    <vehicle id="762" depart="381.00">
        <route edges="E0 -E2"/>
    </vehicle>
    <vehicle id="764" depart="382.00">
        <route edges="E1 E3"/>
    </vehicle>
    <vehicle id="770" depart="385.00">
        <route edges="NE0 -E1"/>
    </vehicle>
    <vehicle id="772" depart="386.00">
        <route edges="E1 E3"/>
    </vehicle>
    <vehicle id="776" depart="388.00">
        <route edges="-E3 -E1"/>
    </vehicle>
    <vehicle id="781" depart="390.50">
        <route edges="-E3 -E1"/>
    </vehicle>
    <vehicle id="784" depart="392.00">
        <route edges="NE0 -E0"/>
    </vehicle>
    <vehicle id="788" depart="394.00">
        <route edges="E2 -E4"/>
    </vehicle>
    <vehicle id="790" depart="395.00">
        <route edges="E1 E3"/>
    </vehicle>
    <vehicle id="791" depart="395.50">
        <route edges="-E3 -E0"/>
    </vehicle>
    <vehicle id="792" depart="396.00">
        <route edges="-E3 -E0"/>
    </vehicle>
    <vehicle id="793" depart="396.50">
        <route edges="E0 -E4"/>
    </vehicle>
    <vehicle id="796" depart="398.00">
        <route edges="E0 -E4"/>
    </vehicle>
    <vehicle id="798" depart="399.00">
        <route edges="E0 -E2"/>
    </vehicle>
    <vehicle id="800" depart="400.00">
        <route edges="NE0 -E0"/>
    </vehicle>
    <vehicle id="801" depart="400.50">
        <route edges="E2 -E4"/>
    </vehicle>
    <vehicle id="802" depart="401.00">
        <route edges="E2 E3"/>
    </vehicle>
    <vehicle id="803" depart="401.50">
        <route edges="E1 E3"/>
    </vehicle>
    <vehicle id="804" depart="402.00">
        <route edges="-E3 -E0"/>
    </vehicle>
    <vehicle id="806" depart="403.00">
        <route edges="E2 -E4"/>
    </vehicle>
    <vehicle id="810" depart="405.00">
        <route edges="E1 E3"/>
    </vehicle>
    <vehicle id="812" depart="406.00">
        <route edges="-E3 -E0"/>
    </vehicle>
    <vehicle id="813" depart="406.50">
        <route edges="E1 -E2"/>
    </vehicle>
    <vehicle id="814" depart="407.00">
        <route edges="E0 -E4"/>
    </vehicle>
    <vehicle id="815" depart="407.50">
        <route edges="E0 -E4"/>
    </vehicle>
    <vehicle id="816" depart="408.00">
        <route edges="E2 E3"/>
    </vehicle>
    <vehicle id="817" depart="408.50">
        <route edges="NE0 -E0"/>
    </vehicle>
    <vehicle id="818" depart="409.00">
        <route edges="E0 -E2"/>
    </vehicle>
    <vehicle id="819" depart="409.50">
        <route edges="E0 -E2"/>
    </vehicle>
    <vehicle id="821" depart="410.50">
        <route edges="-E3 -E1"/>
    </vehicle>
    <vehicle id="822" depart="411.00">
        <route edges="E0 -E4"/>
    </vehicle>
    <vehicle id="824" depart="412.00">
        <route edges="-E3 -E1"/>
    </vehicle>
    <vehicle id="827" depart="413.50">
        <route edges="E1 -E2"/>
    </vehicle>
    <vehicle id="830" depart="415.00">
        <route edges="NE0 -E1"/>
    </vehicle>