<?xml version="1.0" encoding="UTF-8"?>

<!-- generated on 2025-04-17 19:29:09 by Eclipse SUMO sumo Version 1.22.0
-->

<sumoConfiguration xmlns:xsi="http://www.w3.org/2001/XMLSchema-instance" xsi:noNamespaceSchemaLocation="http://sumo.dlr.de/xsd/sumoConfiguration.xsd">

    <input>
        <net-file value="C5E20L.net.xml"/>
        <route-files value="C5E20L.rou.xml"/>
    </input>

</sumoConfiguration>
