<?xml version="1.0" encoding="UTF-8"?>

<!-- generated on 2025-04-23 16:38:19 by Eclipse SUMO sumo Version 1.22.0
-->

<sumoConfiguration xmlns:xsi="http://www.w3.org/2001/XMLSchema-instance" xsi:noNamespaceSchemaLocation="http://sumo.dlr.de/xsd/sumoConfiguration.xsd">

    <input>
        <net-file value="C6E30L.net.xml"/>
        <route-files value="C6E30L.rou.xml"/>

    </input>

</sumoConfiguration>
