<?xml version="1.0" encoding="UTF-8"?>

<!-- generated on 2025-04-22 14:20:22 by Eclipse SUMO netedit Version 1.22.0
<neteditConfiguration xmlns:xsi="http://www.w3.org/2001/XMLSchema-instance" xsi:noNamespaceSchemaLocation="http://sumo.dlr.de/xsd/neteditConfiguration.xsd">

    <input>
        <sumocfg-file value="C:\Users\bobbi\Documents\YEAR 3\sumo3\CN.sumocfg"/>
        <sumo-net-file value="C:\Users\bobbi\Documents\YEAR 3\sumo3\CN.net.xml"/>
    </input>

    <output>
        <output-file value="C:\Users\bobbi\Documents\YEAR 3\sumo3\CN.net.xml"/>
    </output>

    <processing>
        <geometry.min-radius.fix.railways value="false"/>
        <geometry.max-grade.fix value="false"/>
        <offset.disable-normalization value="true"/>
        <lefthand value="0"/>
    </processing>

    <junctions>
        <no-turnarounds value="true"/>
        <junctions.corner-detail value="5"/>
        <junctions.limit-turn-speed value="5.50"/>
        <rectangular-lane-cut value="0"/>
    </junctions>

    <pedestrian>
        <walkingareas value="0"/>
    </pedestrian>

</neteditConfiguration>
-->

<net version="1.20" junctionCornerDetail="5" limitTurnSpeed="5.50" xmlns:xsi="http://www.w3.org/2001/XMLSchema-instance" xsi:noNamespaceSchemaLocation="http://sumo.dlr.de/xsd/net_file.xsd">

    <location netOffset="0.00,0.00" convBoundary="-158.07,-60.07,389.31,307.75" origBoundary="-10000000000.00,-10000000000.00,10000000000.00,10000000000.00" projParameter="!"/>

    <edge id=":Junc0_0" function="internal">
        <lane id=":Junc0_0_0" index="0" speed="8.61" length="16.79" shape="-33.20,-52.03 -35.68,-51.20 -37.48,-48.54 -38.61,-44.05 -39.06,-37.73"/>
    </edge>
    <edge id=":Junc0_1" function="internal">
        <lane id=":Junc0_1_0" index="0" speed="13.89" length="26.96" shape="-33.09,-55.22 -40.46,-54.54 -45.13,-52.16 -49.50,-48.56 -56.00,-44.21"/>
        <lane id=":Junc0_1_1" index="1" speed="13.89" length="26.96" shape="-32.99,-58.42 -40.86,-57.74 -45.88,-55.32 -50.59,-51.60 -57.53,-47.02"/>
    </edge>
    <edge id=":Junc0_3" function="internal">
        <lane id=":Junc0_3_0" index="0" speed="13.89" length="30.75" shape="-60.60,-52.64 -53.95,-56.61 -47.14,-60.65 -40.10,-63.73 -32.78,-64.82"/>
    </edge>
    <edge id=":Junc0_4" function="internal">
        <lane id=":Junc0_4_0" index="0" speed="9.16" length="2.51" shape="-59.06,-49.83 -56.66,-50.55"/>
    </edge>
    <edge id=":Junc0_7" function="internal">
        <lane id=":Junc0_7_0" index="0" speed="9.16" length="23.86" shape="-56.66,-50.55 -52.16,-51.88 -46.81,-50.18 -43.39,-45.28 -42.26,-37.78"/>
    </edge>
    <edge id=":Junc0_5" function="internal">
        <lane id=":Junc0_5_0" index="0" speed="5.68" length="9.23" shape="-48.66,-37.89 -48.98,-40.64 -50.06,-42.14 -51.89,-42.39 -54.47,-41.40"/>
    </edge>
    <edge id=":Junc0_6" function="internal">
        <lane id=":Junc0_6_0" index="0" speed="11.32" length="29.85" shape="-45.46,-37.83 -44.53,-48.39 -42.12,-55.88 -38.24,-60.29 -32.88,-61.62"/>
    </edge>
    <edge id=":Junc1_0" function="internal">
        <lane id=":Junc1_0_0" index="0" speed="7.13" length="16.06" shape="227.25,-24.68 225.78,-26.88 223.28,-26.75 219.77,-24.27 215.23,-19.45"/>
    </edge>
    <edge id=":Junc1_1" function="internal">
        <lane id=":Junc1_1_0" index="0" speed="13.89" length="45.32" shape="230.33,-25.56 226.03,-33.46 218.27,-39.26 207.02,-42.96 192.31,-44.55"/>
    </edge>
    <edge id=":Junc1_2" function="internal">
        <lane id=":Junc1_2_0" index="0" speed="11.53" length="2.69" shape="233.41,-26.43 232.83,-29.06"/>
    </edge>
    <edge id=":Junc1_14" function="internal">
        <lane id=":Junc1_14_0" index="0" speed="11.53" length="33.18" shape="232.83,-29.06 231.02,-37.33 231.33,-45.91 235.36,-51.67 244.13,-54.11"/>
    </edge>
    <edge id=":Junc1_3" function="internal">
        <lane id=":Junc1_3_0" index="0" speed="8.14" length="17.26" shape="244.64,-44.52 242.28,-43.44 241.21,-40.52 241.42,-35.75 242.92,-29.13"/>
    </edge>
    <edge id=":Junc1_4" function="internal">
        <lane id=":Junc1_4_0" index="0" speed="13.89" length="50.95" shape="244.47,-47.72 231.80,-45.80 217.84,-42.07 204.96,-37.77 195.52,-34.14"/>
    </edge>
    <edge id=":Junc1_5" function="internal">
        <lane id=":Junc1_5_0" index="0" speed="13.89" length="51.78" shape="244.30,-50.91 192.52,-50.95"/>
    </edge>
    <edge id=":Junc1_6" function="internal">
        <lane id=":Junc1_6_0" index="0" speed="13.89" length="51.23" shape="192.74,-57.34 243.96,-57.30"/>
    </edge>
    <edge id=":Junc1_7" function="internal">
        <lane id=":Junc1_7_0" index="0" speed="11.97" length="3.35" shape="192.63,-54.15 195.90,-53.42"/>
    </edge>
    <edge id=":Junc1_15" function="internal">
        <lane id=":Junc1_15_0" index="0" speed="11.97" length="46.55" shape="195.90,-53.42 206.69,-51.04 215.84,-43.67 218.42,-33.39 212.78,-21.52"/>
    </edge>
    <edge id=":Junc1_8" function="internal">
        <lane id=":Junc1_8_0" index="0" speed="13.89" length="53.82" shape="193.17,-39.82 203.60,-44.08 218.29,-49.79 233.11,-54.88 243.96,-57.30"/>
    </edge>
    <edge id=":Junc1_9" function="internal">
        <lane id=":Junc1_9_0" index="0" speed="13.89" length="54.08" shape="194.40,-36.86 210.71,-42.52 223.86,-43.88 233.64,-39.58 239.84,-28.26"/>
    </edge>
    <edge id=":Junc1_10" function="internal">
        <lane id=":Junc1_10_0" index="0" speed="6.39" length="16.06" shape="204.34,-28.64 206.84,-32.17 206.41,-33.77 203.05,-33.44 196.75,-31.19"/>
    </edge>
    <edge id=":Junc1_11" function="internal">
        <lane id=":Junc1_11_0" index="0" speed="9.84" length="33.63" shape="204.34,-28.64 209.62,-36.65 209.40,-42.51 203.66,-46.21 192.42,-47.75"/>
        <lane id=":Junc1_11_1" index="1" speed="10.99" length="42.30" shape="206.78,-26.58 213.60,-36.81 213.49,-44.28 206.46,-48.99 192.52,-50.95"/>
    </edge>
    <edge id=":Junc1_13" function="internal">
        <lane id=":Junc1_13_0" index="0" speed="10.41" length="35.51" shape="209.23,-24.51 217.24,-31.90 225.24,-35.82 232.12,-34.80 236.76,-27.39"/>
    </edge>
    <edge id=":Junc10_0" function="internal">
        <lane id=":Junc10_0_0" index="0" speed="13.89" length="48.80" shape="340.13,278.96 336.22,294.10 330.09,304.65 321.72,310.62 311.12,312.00"/>
    </edge>
    <edge id=":Junc10_1" function="internal">
        <lane id=":Junc10_1_0" index="0" speed="5.94" length="13.37" shape="327.66,275.38 329.74,280.30 331.46,282.37 332.82,281.58 333.81,277.95"/>
    </edge>
    <edge id=":Junc10_2" function="internal">
        <lane id=":Junc10_2_0" index="0" speed="12.01" length="44.00" shape="324.65,276.45 328.05,289.44 327.72,300.06 322.54,306.96 311.37,308.81"/>
    </edge>
    <edge id=":Junc10_3" function="internal">
        <lane id=":Junc10_3_0" index="0" speed="5.59" length="11.78" shape="311.44,282.39 314.61,284.97 316.36,285.38 316.69,283.62 315.61,279.67"/>
        <lane id=":Junc10_3_1" index="1" speed="8.06" length="26.51" shape="309.24,284.71 316.37,290.53 320.31,291.45 321.06,287.48 318.62,278.60"/>
    </edge>
    <edge id=":Junc10_5" function="internal">
        <lane id=":Junc10_5_0" index="0" speed="6.96" length="17.61" shape="312.12,299.24 314.98,298.72 315.09,296.52 312.44,292.62 307.03,287.03"/>
    </edge>
    <edge id=":Junc10_6" function="internal">
        <lane id=":Junc10_6_0" index="0" speed="10.58" length="33.84" shape="311.87,302.43 319.67,301.43 323.90,296.95 324.55,288.98 321.63,277.52"/>
    </edge>
    <edge id=":Junc10_7" function="internal">
        <lane id=":Junc10_7_0" index="0" speed="13.77" length="41.37" shape="311.62,305.62 320.98,304.52 328.33,299.63 333.66,290.94 336.97,278.45"/>
    </edge>
    <edge id=":Junc2_0" function="internal">
        <lane id=":Junc2_0_0" index="0" speed="12.15" length="39.60" shape="371.61,-64.07 382.59,-62.89 389.01,-58.03 391.52,-49.65 390.78,-37.92"/>
    </edge>
    <edge id=":Junc2_1" function="internal">
        <lane id=":Junc2_1_0" index="0" speed="9.60" length="28.48" shape="371.78,-60.88 379.10,-59.52 382.69,-55.02 382.98,-48.27 380.41,-40.14"/>
    </edge>
    <edge id=":Junc2_2" function="internal">
        <lane id=":Junc2_2_0" index="0" speed="7.06" length="14.77" shape="377.49,-41.46 378.92,-45.96 378.53,-49.10 376.32,-50.87 372.28,-51.29"/>
    </edge>
    <edge id=":Junc2_3" function="internal">
        <lane id=":Junc2_3_0" index="0" speed="6.26" length="16.54" shape="384.46,-38.93 385.15,-44.92 384.71,-47.11 383.13,-45.52 380.41,-40.14"/>
    </edge>
    <edge id=":Junc2_4" function="internal">
        <lane id=":Junc2_4_0" index="0" speed="9.53" length="23.92" shape="384.46,-38.93 384.67,-46.03 382.68,-50.99 378.50,-53.81 372.11,-54.49"/>
        <lane id=":Junc2_4_1" index="1" speed="10.61" length="29.91" shape="387.62,-38.42 387.86,-47.23 385.32,-53.37 380.02,-56.85 371.94,-57.68"/>
    </edge>
    <edge id=":Junc3_0" function="internal">
        <lane id=":Junc3_0_0" index="0" speed="13.78" length="44.63" shape="-162.06,30.49 -165.62,20.24 -164.28,10.80 -158.04,2.18 -146.90,-5.63"/>
        <lane id=":Junc3_0_1" index="1" speed="12.97" length="39.43" shape="-159.27,28.92 -162.31,20.01 -161.01,11.74 -155.36,4.13 -145.37,-2.82"/>
    </edge>
    <edge id=":Junc3_2" function="internal">
        <lane id=":Junc3_2_0" index="0" speed="9.94" length="6.84" shape="-159.27,28.92 -160.81,22.26"/>
    </edge>
    <edge id=":Junc3_8" function="internal">
        <lane id=":Junc3_8_0" index="0" speed="9.94" length="24.79" shape="-160.81,22.26 -160.99,21.46 -157.15,16.76 -149.45,14.37 -139.62,13.81"/>
    </edge>
    <edge id=":Junc3_3" function="internal">
        <lane id=":Junc3_3_0" index="0" speed="7.56" length="17.66" shape="-139.76,20.21 -147.11,20.43 -151.88,21.43 -154.08,23.21 -153.70,25.78"/>
    </edge>
    <edge id=":Junc3_4" function="internal">
        <lane id=":Junc3_4_0" index="0" speed="8.35" length="28.06" shape="-139.69,17.01 -146.83,14.58 -150.60,9.06 -150.34,2.56 -145.37,-2.82"/>
    </edge>
    <edge id=":Junc3_5" function="internal">
        <lane id=":Junc3_5_0" index="0" speed="5.53" length="11.24" shape="-140.78,5.61 -144.00,7.72 -144.87,9.26 -143.39,10.22 -139.56,10.61"/>
    </edge>
    <edge id=":Junc3_6" function="internal">
        <lane id=":Junc3_6_0" index="0" speed="11.19" length="29.05" shape="-142.31,2.80 -150.00,8.04 -154.47,13.62 -155.70,19.53 -153.70,25.78"/>
        <lane id=":Junc3_6_1" index="1" speed="12.11" length="34.24" shape="-143.84,-0.01 -152.68,6.09 -157.74,12.68 -159.00,19.77 -156.49,27.35"/>
    </edge>
    <edge id=":Junc4_0" function="internal">
        <lane id=":Junc4_0_0" index="0" speed="13.89" length="25.39" shape="-34.17,23.83 -40.94,23.60 -46.83,22.96 -52.71,22.27 -59.48,21.86"/>
    </edge>
    <edge id=":Junc4_1" function="internal">
        <lane id=":Junc4_1_0" index="0" speed="10.06" length="23.50" shape="-34.21,20.63 -40.93,19.83 -45.71,17.27 -48.53,12.94 -49.39,6.86"/>
    </edge>
    <edge id=":Junc4_2" function="internal">
        <lane id=":Junc4_2_0" index="0" speed="13.89" length="22.50" shape="-39.79,7.02 -41.16,29.47"/>
    </edge>
    <edge id=":Junc4_3" function="internal">
        <lane id=":Junc4_3_0" index="0" speed="10.01" length="5.62" shape="-42.99,6.97 -44.09,12.21 -44.26,12.41"/>
    </edge>
    <edge id=":Junc4_9" function="internal">
        <lane id=":Junc4_9_0" index="0" speed="10.01" length="17.24" shape="-44.26,12.41 -47.20,15.91 -52.30,18.06 -59.41,18.66"/>
    </edge>
    <edge id=":Junc4_4" function="internal">
        <lane id=":Junc4_4_0" index="0" speed="13.89" length="25.09" shape="-59.28,12.27 -34.27,14.24"/>
    </edge>
    <edge id=":Junc4_5" function="internal">
        <lane id=":Junc4_5_0" index="0" speed="10.15" length="23.29" shape="-59.34,15.46 -52.74,16.46 -48.05,19.12 -45.25,23.44 -44.36,29.44"/>
    </edge>
    <edge id=":Junc4_6" function="internal">
        <lane id=":Junc4_6_0" index="0" speed="7.00" length="10.52" shape="-53.96,29.36 -54.28,26.12 -55.31,23.79 -57.04,22.37 -59.48,21.86"/>
    </edge>
    <edge id=":Junc4_7" function="internal">
        <lane id=":Junc4_7_0" index="0" speed="13.89" length="23.05" shape="-50.76,29.39 -50.03,22.44 -48.50,17.60 -46.96,13.03 -46.19,6.91"/>
    </edge>
    <edge id=":Junc4_8" function="internal">
        <lane id=":Junc4_8_0" index="0" speed="9.54" length="10.67" shape="-47.56,29.41 -46.69,24.22 -44.18,20.50 -43.37,20.06"/>
    </edge>
    <edge id=":Junc4_10" function="internal">
        <lane id=":Junc4_10_0" index="0" speed="9.54" length="9.66" shape="-43.37,20.06 -40.03,18.23 -34.24,17.43"/>
    </edge>
    <edge id=":Junc5_0" function="internal">
        <lane id=":Junc5_0_0" index="0" speed="11.45" length="16.14" shape="60.63,33.09 57.18,28.67 54.03,25.51 51.17,23.62 48.60,23.01"/>
    </edge>
    <edge id=":Junc5_1" function="internal">
        <lane id=":Junc5_1_0" index="0" speed="9.04" length="21.57" shape="63.24,31.24 60.75,26.13 60.98,21.64 63.94,17.79 69.62,14.57"/>
    </edge>
    <edge id=":Junc5_2" function="internal">
        <lane id=":Junc5_2_0" index="0" speed="7.07" length="12.69" shape="72.06,20.48 68.04,22.54 65.66,24.71 64.93,26.99 65.85,29.39"/>
    </edge>
    <edge id=":Junc5_3" function="internal">
        <lane id=":Junc5_3_0" index="0" speed="13.89" length="22.62" shape="70.84,17.52 64.87,19.48 59.99,20.06 54.97,19.95 48.57,19.81"/>
    </edge>
    <edge id=":Junc5_4" function="internal">
        <lane id=":Junc5_4_0" index="0" speed="13.89" length="20.24" shape="48.50,13.41 54.53,13.62 58.73,13.90 62.80,13.48 68.40,11.61"/>
    </edge>
    <edge id=":Junc5_5" function="internal">
        <lane id=":Junc5_5_0" index="0" speed="13.38" length="4.22" shape="48.54,16.61 52.69,17.38"/>
    </edge>
    <edge id=":Junc5_6" function="internal">
        <lane id=":Junc5_6_0" index="0" speed="13.38" length="18.04" shape="52.69,17.38 56.96,19.76 61.34,23.77 65.85,29.39"/>
    </edge>
    <edge id=":Junc6_0" function="internal">
        <lane id=":Junc6_0_0" index="0" speed="12.97" length="33.27" shape="125.15,114.67 117.40,108.82 109.82,106.09 102.40,106.51 95.15,110.05"/>
    </edge>
    <edge id=":Junc6_1" function="internal">
        <lane id=":Junc6_1_0" index="0" speed="8.69" length="20.62" shape="128.18,102.29 124.33,102.05 121.44,104.42 119.50,109.41 118.52,117.01"/>
    </edge>
    <edge id=":Junc6_2" function="internal">
        <lane id=":Junc6_2_0" index="0" speed="13.89" length="35.78" shape="129.26,99.27 123.88,98.90 116.71,101.01 107.75,105.60 97.01,112.66"/>
    </edge>
    <edge id=":Junc6_3" function="internal">
        <lane id=":Junc6_3_0" index="0" speed="9.74" length="7.63" shape="130.34,96.26 123.39,93.12"/>
    </edge>
    <edge id=":Junc6_16" function="internal">
        <lane id=":Junc6_16_0" index="0" speed="9.74" length="20.18" shape="123.39,93.12 122.60,92.77 117.54,88.45 116.18,83.17 119.58,76.82"/>
    </edge>
    <edge id=":Junc6_4" function="internal">
        <lane id=":Junc6_4_0" index="0" speed="13.89" length="37.56" shape="124.42,81.09 120.31,87.21 117.74,94.83 116.24,104.52 115.33,116.83"/>
    </edge>
    <edge id=":Junc6_5" function="internal">
        <lane id=":Junc6_5_0" index="0" speed="11.61" length="14.95" shape="122.02,78.97 114.16,85.08 109.18,85.47"/>
    </edge>
    <edge id=":Junc6_17" function="internal">
        <lane id=":Junc6_17_0" index="0" speed="11.61" length="21.24" shape="109.18,85.47 106.93,85.64 99.99,81.40 92.99,73.12"/>
    </edge>
    <edge id=":Junc6_6" function="internal">
        <lane id=":Junc6_6_0" index="0" speed="13.89" length="41.63" shape="95.60,71.26 101.26,75.47 111.60,81.01 123.16,86.42 132.49,90.23"/>
    </edge>
    <edge id=":Junc6_7" function="internal">
        <lane id=":Junc6_7_0" index="0" speed="5.55" length="9.43" shape="87.33,80.59 90.25,80.35 91.73,79.34 91.77,77.54 90.38,74.97"/>
    </edge>
    <edge id=":Junc6_8" function="internal">
        <lane id=":Junc6_8_0" index="0" speed="13.89" length="45.40" shape="87.20,83.78 101.21,85.15 113.27,87.57 123.34,90.47 131.42,93.25"/>
    </edge>
    <edge id=":Junc6_9" function="internal">
        <lane id=":Junc6_9_0" index="0" speed="13.89" length="30.59" shape="87.06,86.98 100.76,90.33 111.98,97.40 114.34,99.60"/>
    </edge>
    <edge id=":Junc6_10" function="internal">
        <lane id=":Junc6_10_0" index="0" speed="12.43" length="24.33" shape="86.92,90.18 94.18,93.20 101.45,100.14 104.93,105.53"/>
    </edge>
    <edge id=":Junc6_18" function="internal">
        <lane id=":Junc6_18_0" index="0" speed="13.89" length="18.23" shape="114.34,99.60 120.80,105.60 127.35,112.35"/>
    </edge>
    <edge id=":Junc6_19" function="internal">
        <lane id=":Junc6_19_0" index="0" speed="12.43" length="11.78" shape="104.93,105.53 106.96,108.67 108.94,116.47"/>
    </edge>
    <edge id=":Junc6_11" function="internal">
        <lane id=":Junc6_11_0" index="0" speed="6.80" length="16.89" shape="89.58,102.23 93.74,98.59 94.66,95.89 92.35,94.16 86.79,93.37"/>
    </edge>
    <edge id=":Junc6_12" function="internal">
        <lane id=":Junc6_12_0" index="0" speed="13.89" length="40.08" shape="91.44,104.84 98.84,97.70 103.97,89.65 108.67,81.13 114.79,72.57"/>
    </edge>
    <edge id=":Junc6_13" function="internal">
        <lane id=":Junc6_13_0" index="0" speed="8.39" length="23.81" shape="93.29,107.44 98.69,106.19 104.99,107.91 110.15,111.70 112.13,116.65"/>
    </edge>
    <edge id=":Junc6_14" function="internal">
        <lane id=":Junc6_14_0" index="0" speed="13.89" length="44.54" shape="102.55,116.11 103.67,107.01 106.35,95.87 110.79,84.50 117.19,74.69"/>
    </edge>
    <edge id=":Junc6_15" function="internal">
        <lane id=":Junc6_15_0" index="0" speed="9.00" length="28.00" shape="105.74,116.29 108.82,111.06 115.59,107.97 123.38,107.47 129.55,110.03"/>
    </edge>
    <edge id=":Junc7_0" function="internal">
        <lane id=":Junc7_0_0" index="0" speed="11.71" length="15.03" shape="273.45,161.41 271.74,157.66 269.53,154.63 266.81,152.31 263.60,150.72"/>
    </edge>
    <edge id=":Junc7_1" function="internal">
        <lane id=":Junc7_1_0" index="0" speed="13.89" length="27.25" shape="276.47,160.33 274.96,152.57 275.79,146.93 276.77,141.24 275.73,133.34"/>
        <lane id=":Junc7_1_1" index="1" speed="13.89" length="27.25" shape="279.48,159.26 278.00,151.56 278.84,145.96 279.83,140.31 278.81,132.46"/>
    </edge>
    <edge id=":Junc7_3" function="internal">
        <lane id=":Junc7_3_0" index="0" speed="13.04" length="37.01" shape="299.06,139.86 294.54,145.56 287.48,148.27 277.88,147.98 265.75,144.69"/>
    </edge>
    <edge id=":Junc7_4" function="internal">
        <lane id=":Junc7_4_0" index="0" speed="6.74" length="16.28" shape="288.05,129.82 290.30,136.50 292.40,140.17 294.34,140.86 296.14,138.54"/>
    </edge>
    <edge id=":Junc7_5" function="internal">
        <lane id=":Junc7_5_0" index="0" speed="13.89" length="26.67" shape="284.97,130.70 286.11,138.86 285.34,145.14 284.52,150.79 285.51,157.11"/>
    </edge>
    <edge id=":Junc7_6" function="internal">
        <lane id=":Junc7_6_0" index="0" speed="8.97" length="6.13" shape="281.90,131.58 281.15,137.66"/>
    </edge>
    <edge id=":Junc7_9" function="internal">
        <lane id=":Junc7_9_0" index="0" speed="8.97" length="20.56" shape="281.15,137.66 276.87,143.47 270.79,147.36 264.68,147.70"/>
    </edge>
    <edge id=":Junc7_7" function="internal">
        <lane id=":Junc7_7_0" index="0" speed="5.58" length="9.37" shape="267.91,138.66 270.72,139.28 272.45,138.75 273.09,137.06 272.65,134.22"/>
    </edge>
    <edge id=":Junc7_8" function="internal">
        <lane id=":Junc7_8_0" index="0" speed="13.89" length="23.53" shape="266.83,141.68 272.02,144.21 276.35,147.81 279.85,152.46 282.50,158.18"/>
    </edge>
    <edge id=":Junc8_0" function="internal">
        <lane id=":Junc8_0_0" index="0" speed="13.89" length="31.12" shape="-42.36,226.20 -50.68,220.90 -56.50,215.57 -60.78,209.95 -64.44,203.78"/>
        <lane id=":Junc8_0_1" index="1" speed="13.89" length="31.12" shape="-40.83,223.39 -48.90,218.31 -54.30,213.41 -58.17,208.20 -61.66,202.21"/>
    </edge>
    <edge id=":Junc8_2" function="internal">
        <lane id=":Junc8_2_0" index="0" speed="9.25" length="4.86" shape="-39.30,220.57 -43.18,217.64"/>
        <lane id=":Junc8_2_1" index="1" speed="8.82" length="5.39" shape="-39.30,220.57 -43.65,217.38"/>
    </edge>
    <edge id=":Junc8_8" function="internal">
        <lane id=":Junc8_8_0" index="0" speed="9.25" length="21.18" shape="-43.18,217.64 -45.32,216.02 -48.04,210.83 -47.13,205.41 -42.25,200.19"/>
        <lane id=":Junc8_8_1" index="0" speed="8.82" length="18.11" shape="-43.65,217.38 -44.91,216.46 -46.96,212.12 -45.46,207.57 -40.39,202.80"/>
    </edge>
    <edge id=":Junc8_4" function="internal">
        <lane id=":Junc8_4_0" index="0" speed="5.75" length="9.18" shape="-36.68,208.01 -38.65,209.87 -39.24,211.65 -38.44,213.34 -36.25,214.95"/>
    </edge>
    <edge id=":Junc8_5" function="internal">
        <lane id=":Junc8_5_0" index="0" speed="10.50" length="27.26" shape="-38.53,205.40 -45.68,209.27 -51.92,210.03 -57.24,207.67 -61.66,202.21"/>
    </edge>
    <edge id=":Junc8_6" function="internal">
        <lane id=":Junc8_6_0" index="0" speed="7.57" length="13.61" shape="-56.08,199.07 -54.27,200.86 -51.67,201.21 -48.28,200.12 -44.11,197.59"/>
    </edge>
    <edge id=":Junc8_7" function="internal">
        <lane id=":Junc8_7_0" index="0" speed="13.89" length="27.57" shape="-58.87,200.64 -54.74,206.32 -49.78,210.68 -44.09,214.30 -37.78,217.76"/>
    </edge>
    <edge id=":Junc9_0" function="internal">
        <lane id=":Junc9_0_0" index="0" speed="13.89" length="34.63" shape="113.72,296.63 106.07,296.66 97.96,296.95 89.26,296.05 79.80,292.49"/>
    </edge>
    <edge id=":Junc9_1" function="internal">
        <lane id=":Junc9_1_0" index="0" speed="10.92" length="6.25" shape="113.97,293.44 107.84,292.23"/>
    </edge>
    <edge id=":Junc9_8" function="internal">
        <lane id=":Junc9_8_0" index="0" speed="10.92" length="20.62" shape="107.84,292.23 106.10,291.89 100.60,288.66 97.47,283.75 96.70,277.16"/>
    </edge>
    <edge id=":Junc9_2" function="internal">
        <lane id=":Junc9_2_0" index="0" speed="6.56" length="9.03" shape="109.48,277.88 109.69,280.34 110.63,282.15 112.31,283.33 114.72,283.87"/>
        <lane id=":Junc9_2_1" index="1" speed="8.04" length="14.11" shape="106.28,277.70 106.61,281.54 108.09,284.38 110.71,286.22 114.47,287.06"/>
    </edge>
    <edge id=":Junc9_4" function="internal">
        <lane id=":Junc9_4_0" index="0" speed="10.17" length="31.48" shape="103.09,277.52 101.07,286.18 96.48,291.26 89.75,292.51 81.32,289.68"/>
        <lane id=":Junc9_4_1" index="1" speed="9.22" length="25.62" shape="99.90,277.34 98.45,284.77 95.12,288.83 89.92,289.53 82.85,286.87"/>
    </edge>
    <edge id=":Junc9_6" function="internal">
        <lane id=":Junc9_6_0" index="0" speed="6.35" length="11.44" shape="85.90,281.24 89.06,282.43 91.38,282.12 92.86,280.30 93.51,276.98"/>
    </edge>
    <edge id=":Junc9_7" function="internal">
        <lane id=":Junc9_7_0" index="0" speed="13.89" length="30.75" shape="84.38,284.05 90.64,286.87 96.99,288.50 104.48,289.46 114.22,290.25"/>
    </edge>
    <edge id=":clusterJ12_J57_0" function="internal">
        <lane id=":clusterJ12_J57_0_0" index="0" speed="11.40" length="29.14" shape="-36.50,88.13 -44.36,86.68 -49.96,83.11 -53.28,77.40 -54.33,69.57"/>
        <lane id=":clusterJ12_J57_0_1" index="1" speed="10.93" length="26.67" shape="-36.50,88.13 -42.96,86.73 -47.56,83.18 -50.28,77.47 -51.13,69.60"/>
        <lane id=":clusterJ12_J57_0_2" index="2" speed="10.45" length="24.32" shape="-36.50,88.13 -41.56,86.79 -45.16,83.26 -47.28,77.54 -47.93,69.63"/>
    </edge>
    <edge id=":clusterJ12_J57_3" function="internal">
        <lane id=":clusterJ12_J57_3_0" index="0" speed="6.57" length="8.99" shape="-41.53,69.68 -41.20,72.07 -40.16,73.81 -38.41,74.90 -35.95,75.34"/>
        <lane id=":clusterJ12_J57_3_1" index="1" speed="8.06" length="14.03" shape="-44.73,69.66 -44.22,73.40 -42.61,76.13 -39.90,77.84 -36.09,78.54"/>
        <lane id=":clusterJ12_J57_3_2" index="2" speed="8.72" length="16.62" shape="-44.73,69.66 -44.24,74.80 -42.66,78.53 -39.99,80.84 -36.23,81.73"/>
        <lane id=":clusterJ12_J57_3_3" index="3" speed="9.37" length="19.34" shape="-44.73,69.66 -44.26,76.20 -42.71,80.93 -40.08,83.84 -36.36,84.93"/>
    </edge>

    <edge id="-E10" from="Junc7" to="Junc6" priority="-1" shape="271.46,145.03 129.33,94.20">
        <lane id="-E10_0" index="0" speed="13.89" length="143.81" shape="263.60,150.72 128.18,102.29"/>
        <lane id="-E10_1" index="1" speed="13.89" length="143.81" shape="264.68,147.70 129.26,99.27"/>
        <lane id="-E10_2" index="2" speed="13.89" length="143.81" shape="265.75,144.69 130.34,96.26"/>
    </edge>
    <edge id="-E12" from="Junc9" to="Junc6" priority="-1" shape="98.03,282.01 107.34,116.38">
        <lane id="-E12_0" index="0" speed="13.89" length="161.12" shape="93.51,276.98 102.55,116.11"/>
        <lane id="-E12_1" index="1" speed="13.89" length="161.12" shape="96.70,277.16 105.74,116.29"/>
    </edge>
    <edge id="-E13" from="Junc8" to="Junc6" priority="-1" shape="-48.17,210.31 94.36,108.65">
        <lane id="-E13_0" index="0" speed="13.89" length="164.21" shape="-44.11,197.59 89.58,102.23"/>
        <lane id="-E13_1" index="1" speed="13.89" length="164.21" shape="-42.25,200.19 91.44,104.84"/>
        <lane id="-E13_2" index="2" speed="13.89" length="164.21" shape="-40.39,202.80 93.29,107.44"/>
    </edge>
    <edge id="-E14" from="Junc1" to="Junc5" priority="-1" shape="212.64,-42.97 65.86,17.85">
        <lane id="-E14_0" index="0" speed="13.89" length="134.97" shape="196.75,-31.19 72.06,20.48"/>
        <lane id="-E14_1" index="1" speed="13.89" length="134.97" shape="195.52,-34.14 70.84,17.52"/>
    </edge>
    <edge id="-E16" from="Junc0" to="Junc3" priority="-1" shape="-51.56,-52.10 -147.84,0.35">
        <lane id="-E16_0" index="0" speed="13.89" length="98.28" shape="-54.47,-41.40 -140.78,5.61"/>
        <lane id="-E16_1" index="1" speed="13.89" length="98.28" shape="-56.00,-44.21 -142.31,2.80"/>
        <lane id="-E16_2" index="2" speed="13.89" length="98.28" shape="-57.53,-47.02 -143.84,-0.01"/>
    </edge>
    <edge id="-E19" from="Junc8" to="Junc9" priority="-1" shape="-42.57,216.98 92.40,290.23">
        <lane id="-E19_0" index="0" speed="13.89" length="138.98" shape="-36.25,214.95 85.90,281.24"/>
        <lane id="-E19_1" index="1" speed="13.89" length="138.98" shape="-37.78,217.76 84.38,284.05"/>
    </edge>
    <edge id="-E2" from="Junc4" to="Junc5" priority="-1" shape="-35.74,19.05 56.71,18.13">
        <lane id="-E2_0" index="0" speed="13.89" length="82.78" shape="-34.27,14.24 48.50,13.41"/>
        <lane id="-E2_1" index="1" speed="13.89" length="82.78" shape="-34.24,17.43 48.54,16.61"/>
    </edge>
    <edge id="-E20" from="Junc2" to="Junc7" priority="-1" shape="379.04,-41.00 293.33,148.65">
        <lane id="-E20_0" index="0" speed="13.89" length="197.53" shape="380.41,-40.14 299.06,139.86"/>
    </edge>
    <edge id="-E23" from="Junc7" to="Junc10" priority="-1" shape="280.99,158.72 326.66,286.86">
        <lane id="-E23_0" index="0" speed="13.89" length="125.55" shape="285.51,157.11 327.66,275.38"/>
        <lane id="-E23_1" index="1" speed="13.89" length="125.55" shape="282.50,158.18 324.65,276.45"/>
    </edge>
    <edge id="-E26" from="clusterJ12_J57" to="Junc4" priority="-1" shape="-46.47,84.60 -45.92,24.64">
        <lane id="-E26_0" index="0" speed="13.89" length="40.21" shape="-54.33,69.57 -53.96,29.36"/>
        <lane id="-E26_1" index="1" speed="13.89" length="40.21" shape="-51.13,69.60 -50.76,29.39"/>
        <lane id="-E26_2" index="2" speed="13.89" length="40.21" shape="-47.93,69.63 -47.56,29.41"/>
    </edge>
    <edge id="-E3" from="Junc4" to="Junc0" priority="-1" shape="-44.65,10.48 -43.73,-45.77">
        <lane id="-E3_0" index="0" speed="13.89" length="44.75" shape="-49.39,6.86 -48.66,-37.89"/>
        <lane id="-E3_1" index="1" speed="13.89" length="44.75" shape="-46.19,6.91 -45.46,-37.83"/>
    </edge>
    <edge id="-E4" from="Junc4" to="Junc3" priority="-1" shape="-52.31,17.21 -145.10,15.30">
        <lane id="-E4_0" index="0" speed="13.89" length="80.30" shape="-59.48,21.86 -139.76,20.21"/>
        <lane id="-E4_1" index="1" speed="13.89" length="80.30" shape="-59.41,18.66 -139.69,17.01"/>
    </edge>
    <edge id="-E6" from="Junc6" to="clusterJ12_J57" priority="-1" shape="93.31,92.05 -36.43,86.53">
        <lane id="-E6_0" index="0" speed="13.89" length="123.40" shape="86.79,93.37 -36.50,88.13"/>
    </edge>
    <edge id="-E8" from="Junc1" to="Junc6" priority="-1" shape="211.56,-22.55 205.41,-15.26 118.08,80.93">
        <lane id="-E8_0" index="0" speed="13.89" length="135.45" shape="215.23,-19.45 209.02,-12.10 124.42,81.09"/>
        <lane id="-E8_1" index="1" speed="13.89" length="135.45" shape="212.78,-21.52 206.61,-14.21 122.02,78.97"/>
    </edge>
    <edge id="E10" from="Junc6" to="Junc7" priority="-1" shape="129.33,94.20 271.46,145.03">
        <lane id="E10_0" index="0" speed="13.89" length="143.81" shape="132.49,90.23 267.91,138.66"/>
        <lane id="E10_1" index="1" speed="13.89" length="143.81" shape="131.42,93.25 266.83,141.68"/>
    </edge>
    <edge id="E12" from="Junc6" to="Junc9" priority="-1" shape="107.34,116.38 98.03,282.01">
        <lane id="E12_0" index="0" speed="13.89" length="161.12" shape="118.52,117.01 109.48,277.88"/>