<?xml version="1.0" encoding="UTF-8"?>

<!-- generated on 2025-04-25 15:39:25 by Eclipse SUMO netedit Version 1.22.0
<neteditConfiguration xmlns:xsi="http://www.w3.org/2001/XMLSchema-instance" xsi:noNamespaceSchemaLocation="http://sumo.dlr.de/xsd/neteditConfiguration.xsd">

    <input>
        <sumo-net-file value="C:\Users\bobbi\Documents\YEAR 3\sumo3\TESTS\CN1.net.xml"/>
    </input>

    <output>
        <output-file value="C:\Users\bobbi\Documents\YEAR 3\sumo3\TESTS\CN1.net.xml"/>
    </output>

    <processing>
        <geometry.min-radius.fix.railways value="false"/>
        <geometry.max-grade.fix value="false"/>
        <offset.disable-normalization value="true"/>
        <lefthand value="0"/>
    </processing>

    <junctions>
        <no-turnarounds value="true"/>
        <junctions.corner-detail value="5"/>
        <junctions.limit-turn-speed value="5.50"/>
        <rectangular-lane-cut value="0"/>
    </junctions>

    <pedestrian>
        <walkingareas value="0"/>
    </pedestrian>

</neteditConfiguration>
-->

<net version="1.20" junctionCornerDetail="5" limitTurnSpeed="5.50" xmlns:xsi="http://www.w3.org/2001/XMLSchema-instance" xsi:noNamespaceSchemaLocation="http://sumo.dlr.de/xsd/net_file.xsd">

    <location netOffset="0.00,0.00" convBoundary="-205.12,47.17,288.65,401.41" origBoundary="-10000000000.00,-10000000000.00,10000000000.00,10000000000.00" projParameter="!"/>

    <edge id=":Junc0_0" function="internal">
        <lane id=":Junc0_0_0" index="0" speed="8.07" length="11.02" shape="-98.59,62.34 -99.74,59.34 -101.36,57.15 -103.44,55.79 -105.98,55.26"/>
    </edge>
    <edge id=":Junc0_1" function="internal">
        <lane id=":Junc0_1_0" index="0" speed="8.88" length="22.14" shape="-95.50,61.50 -96.28,55.16 -94.69,50.77 -90.70,48.32 -84.33,47.82"/>
    </edge>
    <edge id=":Junc0_2" function="internal">
        <lane id=":Junc0_2_0" index="0" speed="5.92" length="9.10" shape="-84.73,54.21 -87.35,54.41 -88.99,55.42 -89.64,57.22 -89.32,59.83"/>
    </edge>
    <edge id=":Junc0_3" function="internal">
        <lane id=":Junc0_3_0" index="0" speed="13.89" length="21.36" shape="-84.53,51.01 -90.66,50.98 -95.18,51.47 -99.69,52.00 -105.83,52.06"/>
    </edge>
    <edge id=":Junc0_4" function="internal">
        <lane id=":Junc0_4_0" index="0" speed="13.89" length="21.47" shape="-105.54,45.66 -99.38,45.61 -94.83,45.08 -90.28,44.59 -84.13,44.62"/>
    </edge>
    <edge id=":Junc0_5" function="internal">
        <lane id=":Junc0_5_0" index="0" speed="10.48" length="3.54" shape="-105.69,48.86 -102.21,49.54"/>
    </edge>
    <edge id=":Junc0_6" function="internal">
        <lane id=":Junc0_6_0" index="0" speed="10.48" length="15.61" shape="-102.21,49.54 -101.03,49.77 -97.26,52.05 -94.39,55.68 -92.41,60.67"/>
    </edge>
    <edge id=":Junc1_0" function="internal">
        <lane id=":Junc1_0_0" index="0" speed="12.80" length="21.40" shape="25.83,68.98 22.97,65.36 18.94,62.65 13.74,60.85 7.37,59.96"/>
    </edge>
    <edge id=":Junc1_1" function="internal">
        <lane id=":Junc1_1_0" index="0" speed="12.13" length="15.51" shape="31.22,60.01 28.33,60.55 25.26,62.13 22.03,64.73 18.63,68.35"/>
    </edge>
    <edge id=":Junc1_2" function="internal">
        <lane id=":Junc1_2_0" index="0" speed="13.89" length="23.61" shape="31.18,56.81 7.57,56.77"/>
    </edge>
    <edge id=":Junc1_3" function="internal">
        <lane id=":Junc1_3_0" index="0" speed="13.89" length="23.14" shape="7.97,50.38 31.10,50.41"/>
    </edge>
    <edge id=":Junc1_4" function="internal">
        <lane id=":Junc1_4_0" index="0" speed="13.89" length="26.15" shape="7.77,53.58 14.18,54.76 19.79,57.46 24.60,61.69 28.62,67.43"/>
    </edge>
    <edge id=":Junc1_5" function="internal">
        <lane id=":Junc1_5_0" index="0" speed="13.70" length="19.92" shape="16.19,66.29 21.11,60.76 25.24,56.80 28.58,54.42 31.14,53.61"/>
    </edge>
    <edge id=":Junc2_0" function="internal">
        <lane id=":Junc2_0_0" index="0" speed="6.86" length="11.38" shape="150.61,65.78 148.34,64.60 146.08,64.83 143.84,66.47 141.62,69.51"/>
    </edge>
    <edge id=":Junc2_1" function="internal">
        <lane id=":Junc2_1_0" index="0" speed="11.94" length="19.51" shape="154.59,57.94 149.92,58.56 145.74,60.42 142.05,63.53 138.86,67.88"/>
    </edge>
    <edge id=":Junc2_2" function="internal">
        <lane id=":Junc2_2_0" index="0" speed="13.89" length="24.66" shape="154.60,54.74 129.95,55.62"/>
    </edge>
    <edge id=":Junc2_3" function="internal">
        <lane id=":Junc2_3_0" index="0" speed="13.89" length="24.75" shape="129.87,49.22 154.61,48.34"/>
    </edge>
    <edge id=":Junc2_4" function="internal">
        <lane id=":Junc2_4_0" index="0" speed="13.89" length="25.71" shape="129.91,52.42 137.14,53.62 143.59,56.63 148.88,60.25 152.65,63.32"/>
    </edge>
    <edge id=":Junc2_5" function="internal">
        <lane id=":Junc2_5_0" index="0" speed="5.65" length="9.26" shape="133.35,64.63 134.45,62.06 134.25,60.23 132.77,59.15 129.99,58.82"/>
    </edge>
    <edge id=":Junc2_6" function="internal">
        <lane id=":Junc2_6_0" index="0" speed="13.37" length="24.64" shape="136.11,66.26 140.53,59.81 145.08,55.21 149.77,52.46 154.60,51.54"/>
    </edge>
    <edge id=":Junc3_0" function="internal">
        <lane id=":Junc3_0_0" index="0" speed="13.89" length="30.89" shape="-200.53,190.11 -205.14,183.53 -208.01,176.54 -209.15,169.15 -208.54,161.36"/>
    </edge>
    <edge id=":Junc3_1" function="internal">
        <lane id=":Junc3_1_0" index="0" speed="8.81" length="9.14" shape="-198.10,188.03 -202.34,181.58 -202.43,180.16"/>
    </edge>
    <edge id=":Junc3_6" function="internal">
        <lane id=":Junc3_6_0" index="0" speed="8.81" length="16.16" shape="-202.43,180.16 -202.67,176.65 -199.09,173.25 -191.61,171.37"/>
    </edge>
    <edge id=":Junc3_2" function="internal">
        <lane id=":Junc3_2_0" index="0" speed="5.60" length="9.32" shape="-190.85,177.72 -193.61,178.42 -194.93,179.67 -194.81,181.49 -193.25,183.86"/>
    </edge>
    <edge id=":Junc3_3" function="internal">
        <lane id=":Junc3_3_0" index="0" speed="9.20" length="23.48" shape="-191.23,174.55 -198.44,174.51 -203.20,172.40 -205.52,168.20 -205.39,161.94"/>
    </edge>
    <edge id=":Junc3_4" function="internal">
        <lane id=":Junc3_4_0" index="0" speed="6.41" length="10.72" shape="-199.10,163.10 -199.08,165.69 -197.88,167.41 -195.52,168.24 -191.99,168.19"/>
    </edge>
    <edge id=":Junc3_5" function="internal">
        <lane id=":Junc3_5_0" index="0" speed="13.89" length="25.18" shape="-202.25,162.52 -202.74,168.85 -201.80,174.86 -199.45,180.56 -195.67,185.95"/>
    </edge>
    <edge id=":Junc4_0" function="internal">
        <lane id=":Junc4_0_0" index="0" speed="13.89" length="27.30" shape="-52.26,171.27 -59.17,170.11 -65.36,167.45 -71.54,164.97 -78.41,164.36"/>
    </edge>
    <edge id=":Junc4_1" function="internal">
        <lane id=":Junc4_1_0" index="0" speed="13.18" length="32.81" shape="-52.33,168.07 -60.34,166.98 -66.83,163.36 -71.81,157.19 -75.26,148.48"/>
    </edge>
    <edge id=":Junc4_2" function="internal">
        <lane id=":Junc4_2_0" index="0" speed="8.65" length="24.50" shape="-55.14,156.06 -60.28,159.59 -65.17,158.70 -69.31,154.40 -72.18,147.65"/>
    </edge>
    <edge id=":Junc4_3" function="internal">
        <lane id=":Junc4_3_0" index="0" speed="10.93" length="22.28" shape="-66.00,145.97 -63.54,152.91 -60.46,157.84 -56.77,160.76 -52.46,161.67"/>
    </edge>
    <edge id=":Junc4_4" function="internal">
        <lane id=":Junc4_4_0" index="0" speed="9.05" length="20.51" shape="-69.09,146.81 -68.39,152.51 -69.78,156.80 -73.25,159.69 -78.79,161.18"/>
    </edge>
    <edge id=":Junc4_5" function="internal">
        <lane id=":Junc4_5_0" index="0" speed="13.89" length="22.34" shape="-79.55,154.82 -72.38,154.74 -66.05,155.40 -60.99,155.58 -57.59,154.00"/>
    </edge>
    <edge id=":Junc4_6" function="internal">
        <lane id=":Junc4_6_0" index="0" speed="8.70" length="25.24" shape="-79.17,158.00 -72.67,158.94 -69.25,162.94 -68.86,168.94 -71.43,175.87"/>
    </edge>
    <edge id=":Junc4_7" function="internal">
        <lane id=":Junc4_7_0" index="0" speed="13.50" length="24.79" shape="-74.21,174.27 -70.89,170.29 -66.15,167.39 -59.98,165.59 -52.39,164.87"/>
    </edge>
    <edge id=":Junc5_0" function="internal">
        <lane id=":Junc5_0_0" index="0" speed="13.64" length="29.94" shape="87.52,187.19 84.07,186.10 78.19,186.90 69.88,189.57 59.14,194.13"/>
    </edge>
    <edge id=":Junc5_1" function="internal">
        <lane id=":Junc5_1_0" index="0" speed="13.89" length="45.82" shape="89.67,184.82 79.98,177.58 68.75,171.52 57.72,167.38 48.65,165.94"/>
    </edge>
    <edge id=":Junc5_2" function="internal">
        <lane id=":Junc5_2_0" index="0" speed="8.60" length="10.00" shape="91.82,182.45 88.00,176.15 88.34,173.54"/>
    </edge>
    <edge id=":Junc5_14" function="internal">
        <lane id=":Junc5_14_0" index="0" speed="8.60" length="17.81" shape="88.34,173.54 88.81,169.92 93.37,165.27 100.85,163.72"/>
    </edge>
    <edge id=":Junc5_3" function="internal">
        <lane id=":Junc5_3_0" index="0" speed="13.89" length="47.92" shape="100.48,170.10 92.16,171.98 82.21,177.31 70.74,184.32 57.81,191.22"/>
    </edge>
    <edge id=":Junc5_4" function="internal">
        <lane id=":Junc5_4_0" index="0" speed="13.89" length="25.31" shape="100.67,166.91 91.04,165.57 83.14,162.79 77.19,158.70"/>
    </edge>
    <edge id=":Junc5_15" function="internal">
        <lane id=":Junc5_15_0" index="0" speed="13.89" length="7.48" shape="77.19,158.70 76.98,158.55 72.54,152.86"/>
    </edge>
    <edge id=":Junc5_5" function="internal">
        <lane id=":Junc5_5_0" index="0" speed="11.19" length="24.26" shape="91.66,154.08 89.87,159.13 90.38,164.35 93.18,169.76 98.28,175.34"/>
    </edge>
    <edge id=":Junc5_6" function="internal">
        <lane id=":Junc5_6_0" index="0" speed="13.89" length="49.15" shape="88.90,152.45 84.24,160.51 77.59,170.48 68.49,180.40 56.47,188.31"/>
    </edge>
    <edge id=":Junc5_7" function="internal">
        <lane id=":Junc5_7_0" index="0" speed="13.89" length="33.73" shape="75.34,151.30 78.05,155.85 82.48,162.36 88.54,169.94 96.13,177.71"/>
    </edge>
    <edge id=":Junc5_8" function="internal">
        <lane id=":Junc5_8_0" index="0" speed="13.89" length="39.54" shape="48.52,159.54 63.20,158.73 74.37,157.01 82.02,154.37 86.15,150.82"/>
    </edge>
    <edge id=":Junc5_9" function="internal">
        <lane id=":Junc5_9_0" index="0" speed="8.75" length="32.43" shape="48.58,162.74 56.81,165.39 61.24,171.92 60.98,179.52 55.13,185.41"/>
    </edge>
    <edge id=":Junc5_10" function="internal">
        <lane id=":Junc5_10_0" index="0" speed="5.70" length="12.64" shape="49.79,173.78 53.71,171.65 54.83,170.17 53.17,169.33 48.72,169.14"/>
    </edge>
    <edge id=":Junc5_11" function="internal">
        <lane id=":Junc5_11_0" index="0" speed="13.89" length="43.03" shape="51.12,176.68 63.12,170.07 72.16,163.03 78.76,155.95 83.39,149.19"/>
    </edge>
    <edge id=":Junc5_12" function="internal">
        <lane id=":Junc5_12_0" index="0" speed="13.89" length="52.45" shape="52.46,179.59 66.31,173.01 79.82,166.71 91.79,162.08 101.04,160.52"/>
    </edge>
    <edge id=":Junc5_13" function="internal">
        <lane id=":Junc5_13_0" index="0" speed="13.89" length="15.27" shape="53.80,182.50 66.97,177.44 68.11,177.23"/>
    </edge>
    <edge id=":Junc5_16" function="internal">
        <lane id=":Junc5_16_0" index="0" speed="13.89" length="27.08" shape="68.11,177.23 78.06,175.36 87.06,176.23 93.97,180.08"/>
    </edge>
    <edge id=":Junc6_0" function="internal">
        <lane id=":Junc6_0_0" index="0" speed="13.89" length="40.41" shape="293.40,164.17 292.16,170.65 288.03,178.26 281.01,186.98 271.10,196.81"/>
    </edge>
    <edge id=":Junc6_1" function="internal">
        <lane id=":Junc6_1_0" index="0" speed="12.37" length="10.53" shape="290.20,164.28 288.05,171.10 285.13,172.79"/>
    </edge>
    <edge id=":Junc6_9" function="internal">
        <lane id=":Junc6_9_0" index="0" speed="12.37" length="27.35" shape="285.13,172.79 281.52,174.89 271.39,176.33 258.45,176.11"/>
    </edge>
    <edge id=":Junc6_2" function="internal">
        <lane id=":Junc6_2_0" index="0" speed="12.29" length="38.58" shape="272.74,162.68 279.70,170.68 280.83,178.26 276.96,186.00 268.94,194.45"/>
    </edge>
    <edge id=":Junc6_3" function="internal">
        <lane id=":Junc6_3_0" index="0" speed="8.27" length="26.17" shape="272.74,162.68 275.58,167.80 272.82,172.23 266.45,175.25 258.45,176.11"/>
    </edge>
    <edge id=":Junc6_4" function="internal">
        <lane id=":Junc6_4_0" index="0" speed="10.52" length="27.09" shape="258.82,169.72 269.84,169.94 277.67,169.15 282.33,167.33 283.80,164.50"/>
    </edge>
    <edge id=":Junc6_5" function="internal">
        <lane id=":Junc6_5_0" index="0" speed="8.78" length="27.47" shape="258.63,172.91 265.98,175.09 270.24,179.82 270.73,185.89 266.77,192.09"/>
    </edge>
    <edge id=":Junc6_6" function="internal">
        <lane id=":Junc6_6_0" index="0" speed="5.48" length="9.70" shape="260.29,185.01 262.32,182.68 262.66,180.96 261.30,179.83 258.26,179.30"/>
    </edge>
    <edge id=":Junc6_7" function="internal">
        <lane id=":Junc6_7_0" index="0" speed="10.30" length="26.75" shape="262.45,187.37 269.22,180.26 272.85,174.19 273.34,169.15 270.70,165.14"/>
    </edge>
    <edge id=":Junc6_8" function="internal">
        <lane id=":Junc6_8_0" index="0" speed="13.89" length="34.10" shape="264.61,189.73 274.47,180.41 281.49,173.07 285.66,167.73 287.00,164.39"/>
    </edge>
    <edge id=":Junc7_0" function="internal">
        <lane id=":Junc7_0_0" index="0" speed="13.89" length="34.19" shape="-120.43,294.45 -124.16,284.89 -127.97,277.06 -132.05,270.46 -136.63,264.57"/>
    </edge>
    <edge id=":Junc7_1" function="internal">
        <lane id=":Junc7_1_0" index="0" speed="13.89" length="13.85" shape="-117.42,293.38 -119.80,279.74"/>
    </edge>
    <edge id=":Junc7_2" function="internal">
        <lane id=":Junc7_2_0" index="0" speed="9.99" length="2.02" shape="-114.40,292.32 -114.48,290.30"/>
    </edge>
    <edge id=":Junc7_14" function="internal">
        <lane id=":Junc7_14_0" index="0" speed="13.89" length="51.40" shape="-119.80,279.74 -120.20,277.50 -116.59,263.59 -106.60,251.64 -90.22,241.66"/>
    </edge>
    <edge id=":Junc7_15" function="internal">
        <lane id=":Junc7_15_0" index="0" speed="9.99" length="31.76" shape="-114.48,290.30 -114.73,284.15 -109.70,279.84 -101.15,278.89 -90.96,280.81"/>
    </edge>
    <edge id=":Junc7_3" function="internal">
        <lane id=":Junc7_3_0" index="0" speed="12.20" length="56.52" shape="-92.84,286.93 -104.77,278.77 -107.39,266.84 -101.74,254.37 -88.88,244.57"/>
    </edge>
    <edge id=":Junc7_4" function="internal">
        <lane id=":Junc7_4_0" index="0" speed="8.44" length="31.38" shape="-91.90,283.87 -97.09,279.17 -95.80,272.46 -89.87,266.44 -81.16,263.82"/>
    </edge>
    <edge id=":Junc7_5" function="internal">
        <lane id=":Junc7_5_0" index="0" speed="10.95" length="34.57" shape="-81.14,273.42 -93.81,274.42 -102.07,277.37 -105.91,282.27 -105.35,289.11"/>
    </edge>
    <edge id=":Junc7_6" function="internal">
        <lane id=":Junc7_6_0" index="0" speed="8.78" length="32.42" shape="-81.15,270.22 -89.36,267.45 -93.74,260.91 -93.42,253.35 -87.54,247.48"/>
    </edge>
    <edge id=":Junc7_7" function="internal">
        <lane id=":Junc7_7_0" index="0" speed="9.20" length="31.37" shape="-82.20,259.11 -92.98,265.00 -97.87,270.07 -96.89,274.32 -90.02,277.75"/>
    </edge>
    <edge id=":Junc7_8" function="internal">
        <lane id=":Junc7_8_0" index="0" speed="13.89" length="46.37" shape="-83.53,256.20 -96.98,263.79 -105.60,271.98 -109.39,280.78 -108.37,290.18"/>
    </edge>
    <edge id=":Junc7_9" function="internal">
        <lane id=":Junc7_9_0" index="0" speed="13.89" length="52.14" shape="-84.87,253.29 -103.34,260.94 -117.72,265.02 -128.00,265.54 -134.20,262.49"/>
    </edge>
    <edge id=":Junc7_10" function="internal">
        <lane id=":Junc7_10_0" index="0" speed="9.72" length="37.06" shape="-86.21,250.38 -97.16,253.25 -107.04,252.29 -112.86,247.62 -111.63,239.36"/>
    </edge>
    <edge id=":Junc7_11" function="internal">
        <lane id=":Junc7_11_0" index="0" speed="12.47" length="50.32" shape="-108.86,240.96 -112.76,252.39 -109.45,260.55 -98.91,265.42 -81.16,267.02"/>
    </edge>
    <edge id=":Junc7_12" function="internal">
        <lane id=":Junc7_12_0" index="0" speed="13.89" length="42.69" shape="-129.34,258.32 -127.49,256.51 -120.57,252.64 -108.59,246.72 -91.55,238.75"/>
    </edge>
    <edge id=":Junc7_13" function="internal">
        <lane id=":Junc7_13_0" index="0" speed="13.89" length="37.21" shape="-131.77,260.41 -126.54,266.44 -121.01,273.37 -115.77,281.53 -111.38,291.25"/>
    </edge>
    <edge id=":Junc8_0" function="internal">
        <lane id=":Junc8_0_0" index="0" speed="13.89" length="29.16" shape="199.72,262.16 193.80,268.31 190.65,273.29 188.18,278.81 184.31,286.59"/>
    </edge>
    <edge id=":Junc8_1" function="internal">
        <lane id=":Junc8_1_0" index="0" speed="13.89" length="37.56" shape="197.56,259.80 188.93,266.13 180.00,270.17 171.26,272.33 163.23,272.97"/>
    </edge>
    <edge id=":Junc8_2" function="internal">
        <lane id=":Junc8_2_0" index="0" speed="11.64" length="28.98" shape="195.40,257.44 189.86,260.77 183.71,261.17 176.97,258.63 169.63,253.15"/>
    </edge>
    <edge id=":Junc8_3" function="internal">
        <lane id=":Junc8_3_0" index="0" speed="8.41" length="14.68" shape="176.09,246.05 180.19,249.31 183.69,251.12 186.60,251.47 188.92,250.36"/>
    </edge>
    <edge id=":Junc8_4" function="internal">
        <lane id=":Junc8_4_0" index="0" speed="13.89" length="40.79" shape="173.93,248.41 181.36,257.02 185.10,265.99 185.15,275.33 181.51,285.03"/>
    </edge>
    <edge id=":Junc8_5" function="internal">
        <lane id=":Junc8_5_0" index="0" speed="8.69" length="27.65" shape="171.78,250.78 175.69,257.03 175.05,263.19 170.65,267.89 163.23,269.77"/>
    </edge>
    <edge id=":Junc8_6" function="internal">
        <lane id=":Junc8_6_0" index="0" speed="5.46" length="9.89" shape="163.21,263.37 166.39,263.02 167.81,261.99 167.45,260.28 165.33,257.89"/>
    </edge>
    <edge id=":Junc8_7" function="internal">
        <lane id=":Junc8_7_0" index="0" speed="9.63" length="1.83" shape="163.22,266.57 165.04,266.79"/>
    </edge>
    <edge id=":Junc8_11" function="internal">
        <lane id=":Junc8_11_0" index="0" speed="9.63" length="27.38" shape="165.04,266.79 171.89,267.63 178.06,270.84 180.69,276.13 178.72,283.48"/>
    </edge>
    <edge id=":Junc8_8" function="internal">
        <lane id=":Junc8_8_0" index="0" speed="11.62" length="25.61" shape="170.32,278.83 173.01,272.20 173.43,266.11 171.59,260.55 167.48,255.52"/>
    </edge>
    <edge id=":Junc8_9" function="internal">
        <lane id=":Junc8_9_0" index="0" speed="13.89" length="32.73" shape="173.12,280.38 177.44,271.95 180.67,265.43 184.63,259.47 191.08,252.72"/>
        <lane id=":Junc8_9_1" index="1" speed="13.89" length="32.73" shape="175.92,281.93 180.13,273.63 183.15,267.38 186.89,261.70 193.24,255.08"/>
    </edge>
    <edge id=":Junc9_0" function="internal">
        <lane id=":Junc9_0_0" index="0" speed="13.89" length="44.03" shape="149.49,349.41 144.40,355.55 136.37,360.94 125.39,365.58 111.46,369.45"/>
        <lane id=":Junc9_0_1" index="1" speed="13.89" length="41.36" shape="146.69,347.86 141.99,353.44 134.44,358.37 124.02,362.67 110.75,366.33"/>
    </edge>
    <edge id=":Junc9_2" function="internal">
        <lane id=":Junc9_2_0" index="0" speed="13.67" length="3.72" shape="143.89,346.31 140.99,348.64"/>
    </edge>
    <edge id=":Junc9_8" function="internal">
        <lane id=":Junc9_8_0" index="0" speed="13.67" length="32.83" shape="140.99,348.64 139.93,349.48 132.80,350.43 122.51,349.15 109.05,345.64"/>
    </edge>
    <edge id=":Junc9_3" function="internal">
        <lane id=":Junc9_3_0" index="0" speed="11.48" length="25.51" shape="110.93,339.52 120.71,342.19 128.07,343.44 133.00,343.26 135.50,341.65"/>
    </edge>
    <edge id=":Junc9_4" function="internal">
        <lane id=":Junc9_4_0" index="0" speed="8.36" length="28.05" shape="109.99,342.58 116.19,346.87 118.31,353.21 116.29,359.39 110.04,363.21"/>
    </edge>
    <edge id=":Junc9_5" function="internal">
        <lane id=":Junc9_5_0" index="0" speed="5.53" length="11.22" shape="107.91,353.85 111.58,352.70 112.83,351.46 111.68,350.12 108.11,348.70"/>
    </edge>
    <edge id=":Junc9_6" function="internal">
        <lane id=":Junc9_6_0" index="0" speed="13.89" length="33.36" shape="108.62,356.97 119.93,353.96 128.65,350.66 134.77,347.08 138.30,343.20"/>
        <lane id=":Junc9_6_1" index="1" speed="13.89" length="36.02" shape="109.33,360.09 121.30,356.87 130.58,353.23 137.18,349.20 141.09,344.76"/>
    </edge>
    <edge id=":clusterJ17_J60_0" function="internal">
        <lane id=":clusterJ17_J60_0_0" index="0" speed="4.25" length="2.91" shape="-177.18,52.01 -177.82,52.11 -178.32,52.47 -178.70,53.09 -178.95,53.97"/>
        <lane id=":clusterJ17_J60_0_1" index="1" speed="6.31" length="7.56" shape="-177.04,48.81 -178.92,49.03 -180.39,49.86 -181.45,51.32 -182.10,53.39"/>
    </edge>
    <edge id=":clusterJ17_J60_2" function="internal">
        <lane id=":clusterJ17_J60_2_0" index="0" speed="9.15" length="16.88" shape="-188.39,52.23 -186.95,47.77 -184.53,44.65 -181.13,42.86 -176.75,42.42"/>
        <lane id=":clusterJ17_J60_2_1" index="1" speed="7.86" length="12.22" shape="-185.24,52.81 -184.20,49.54 -182.46,47.25 -180.02,45.95 -176.89,45.61"/>
    </edge>
    <edge id=":clusterJ40_J43_0" function="internal">
        <lane id=":clusterJ40_J43_0_0" index="0" speed="4.64" length="3.96" shape="280.27,61.37 280.13,59.97 279.80,58.97 279.30,58.37 278.62,58.16"/>
        <lane id=":clusterJ40_J43_0_1" index="1" speed="6.56" length="8.94" shape="283.47,61.26 283.09,58.51 282.15,56.54 280.66,55.36 278.63,54.96"/>
    </edge>
    <edge id=":clusterJ40_J43_2" function="internal">
        <lane id=":clusterJ40_J43_2_0" index="0" speed="9.29" length="18.97" shape="278.64,48.56 283.39,49.35 286.85,51.69 289.01,55.59 289.87,61.05"/>
        <lane id=":clusterJ40_J43_2_1" index="1" speed="8.04" length="13.95" shape="278.63,51.76 282.03,52.36 284.50,54.12 286.05,57.05 286.67,61.16"/>
    </edge>
    <edge id=":clusterJ54_J55_0" function="internal">
        <lane id=":clusterJ54_J55_0_0" index="0" speed="11.16" length="26.04" shape="-63.31,409.17 -70.32,409.76 -76.07,408.08 -80.56,404.12 -83.80,397.88"/>
        <lane id=":clusterJ54_J55_0_1" index="1" speed="10.13" length="21.31" shape="-64.02,406.05 -69.75,406.53 -74.46,405.16 -78.14,401.92 -80.79,396.81"/>
        <lane id=":clusterJ54_J55_0_2" index="2" speed="8.99" length="16.57" shape="-64.73,402.93 -69.19,403.31 -72.85,402.23 -75.71,399.71 -77.77,395.74"/>
    </edge>
    <edge id=":clusterJ54_J55_3" function="internal">
        <lane id=":clusterJ54_J55_3_0" index="0" speed="3.91" length="2.37" shape="-68.72,392.54 -68.43,393.11 -68.02,393.47 -67.50,393.62 -66.86,393.56"/>
        <lane id=":clusterJ54_J55_3_1" index="1" speed="6.10" length="7.10" shape="-71.74,393.61 -70.85,395.31 -69.63,396.39 -68.06,396.85 -66.15,396.69"/>
        <lane id=":clusterJ54_J55_3_2" index="2" speed="7.68" length="11.84" shape="-74.75,394.68 -73.28,397.51 -71.24,399.31 -68.63,400.08 -65.44,399.81"/>
    </edge>

    <edge id="-E10" from="Junc7" to="Junc4" priority="-1" shape="-121.43,259.62 -68.77,168.03">
        <lane id="-E10_0" index="0" speed="13.89" length="75.08" shape="-111.63,239.36 -74.21,174.27"/>
    </edge>
    <edge id="-E12" from="Junc5" to="Junc1" priority="-1" shape="76.21,156.16 25.84,65.72">
        <lane id="-E12_0" index="0" speed="13.89" length="96.01" shape="72.54,152.86 25.83,68.98"/>
    </edge>
    <edge id="-E13" from="Junc4" to="Junc5" priority="-1" shape="-60.56,166.64 70.32,163.88">
        <lane id="-E13_0" index="0" speed="13.89" length="101.00" shape="-52.46,161.67 48.52,159.54"/>
        <lane id="-E13_1" index="1" speed="13.89" length="101.00" shape="-52.39,164.87 48.58,162.74"/>
    </edge>
    <edge id="-E14" from="Junc2" to="Junc5" priority="-1" shape="141.65,60.02 84.85,156.16">
        <lane id="-E14_0" index="0" speed="13.89" length="98.22" shape="141.62,69.51 91.66,154.08"/>
        <lane id="-E14_1" index="1" speed="13.89" length="98.22" shape="138.86,67.88 88.90,152.45"/>
    </edge>
    <edge id="-E15" from="Junc6" to="Junc5" priority="-1" shape="269.88,175.17 89.90,164.68">
        <lane id="-E15_0" index="0" speed="13.89" length="158.05" shape="258.26,179.30 100.48,170.10"/>
        <lane id="-E15_1" index="1" speed="13.89" length="158.05" shape="258.45,176.11 100.67,166.91"/>
    </edge>
    <edge id="-E17" from="Junc7" to="Junc5" priority="-1" shape="-109.24,259.21 75.20,174.42">
        <lane id="-E17_0" index="0" speed="13.89" length="155.56" shape="-91.55,238.75 49.79,173.78"/>
        <lane id="-E17_1" index="1" speed="13.89" length="155.56" shape="-90.22,241.66 51.12,176.68"/>
        <lane id="-E17_2" index="2" speed="13.89" length="155.56" shape="-88.88,244.57 52.46,179.59"/>
        <lane id="-E17_3" index="3" speed="13.89" length="155.56" shape="-87.54,247.48 53.80,182.50"/>
    </edge>
    <edge id="-E19" from="Junc6" to="Junc2" priority="-1" shape="276.14,167.57 150.25,63.41">
        <lane id="-E19_0" index="0" speed="13.89" length="155.86" shape="270.70,165.14 150.61,65.78"/>
    </edge>
    <edge id="-E20" from="Junc6" to="clusterJ40_J43" priority="-1" shape="288.65,165.75 285.07,61.21">
        <lane id="-E20_0" index="0" speed="13.89" length="103.18" shape="283.80,164.50 280.27,61.37"/>
        <lane id="-E20_1" index="1" speed="13.89" length="103.18" shape="287.00,164.39 283.47,61.26"/>
    </edge>
    <edge id="-E21" from="Junc7" to="Junc8" priority="-1" shape="-101.41,268.66 173.34,268.15">
        <lane id="-E21_0" index="0" speed="13.89" length="244.38" shape="-81.16,263.82 163.21,263.37"/>
        <lane id="-E21_1" index="1" speed="13.89" length="244.38" shape="-81.16,267.02 163.22,266.57"/>
    </edge>
    <edge id="-E23" from="Junc9" to="Junc8" priority="-1" shape="137.34,354.83 183.55,271.46">
        <lane id="-E23_0" index="0" speed="13.89" length="71.83" shape="135.50,341.65 170.32,278.83"/>
        <lane id="-E23_1" index="1" speed="13.89" length="71.83" shape="138.30,343.20 173.12,280.38"/>
        <lane id="-E23_2" index="2" speed="13.89" length="71.83" shape="141.09,344.76 175.92,281.93"/>
    </edge>
    <edge id="-E24" from="Junc9" to="Junc7" priority="-1" shape="129.94,350.39 -105.54,278.00">
        <lane id="-E24_0" index="0" speed="13.89" length="210.23" shape="108.11,348.70 -92.84,286.93"/>
        <lane id="-E24_1" index="1" speed="13.89" length="210.23" shape="109.05,345.64 -91.90,283.87"/>
    </edge>
    <edge id="-E25" from="clusterJ54_J55" to="Junc9" priority="-1" shape="-65.28,401.41 126.68,357.79">
        <lane id="-E25_0" index="0" speed="13.89" length="179.23" shape="-66.86,393.56 107.91,353.85"/>
        <lane id="-E25_1" index="1" speed="13.89" length="179.23" shape="-66.15,396.69 108.62,356.97"/>
        <lane id="-E25_2" index="2" speed="13.89" length="179.23" shape="-65.44,399.81 109.33,360.09"/>
    </edge>
    <edge id="-E26" from="Junc7" to="clusterJ54_J55" priority="-1" shape="-117.26,279.45 -74.57,399.99">
        <lane id="-E26_0" index="0" speed="13.89" length="109.72" shape="-105.35,289.11 -68.72,392.54"/>
        <lane id="-E26_1" index="1" speed="13.89" length="109.72" shape="-108.37,290.18 -71.74,393.61"/>
        <lane id="-E26_2" index="2" speed="13.89" length="109.72" shape="-111.38,291.25 -74.75,394.68"/>
    </edge>
    <edge id="-E27" from="Junc3" to="Junc7" priority="-1" shape="-203.16,179.68 -124.76,271.03">
        <lane id="-E27_0" index="0" speed="13.89" length="98.12" shape="-193.25,183.86 -129.34,258.32"/>
        <lane id="-E27_1" index="1" speed="13.89" length="98.12" shape="-195.67,185.95 -131.77,260.41"/>
    </edge>
    <edge id="-E28" from="clusterJ17_J60" to="Junc3" priority="-1" shape="-183.67,53.10 -205.12,169.26">
        <lane id="-E28_0" index="0" speed="13.89" length="110.97" shape="-178.95,53.97 -199.10,163.10"/>
        <lane id="-E28_1" index="1" speed="13.89" length="110.97" shape="-182.10,53.39 -202.25,162.52"/>
    </edge>
    <edge id="-E5" from="Junc0" to="Junc4" priority="-1" shape="-95.69,54.67 -67.58,158.50">
        <lane id="-E5_0" index="0" speed="13.89" length="89.24" shape="-89.32,59.83 -66.00,145.97"/>
        <lane id="-E5_1" index="1" speed="13.89" length="89.24" shape="-92.41,60.67 -69.09,146.81"/>
    </edge>
    <edge id="-E6" from="Junc0" to="Junc1" priority="-1" shape="-88.50,49.16 20.08,55.95">
        <lane id="-E6_0" index="0" speed="13.89" length="92.28" shape="-84.13,44.62 7.97,50.38"/>
        <lane id="-E6_1" index="1" speed="13.89" length="92.28" shape="-84.33,47.82 7.77,53.58"/>
    </edge>
    <edge id="-E7" from="Junc0" to="clusterJ17_J60" priority="-1" shape="-105.76,50.46 -177.91,47.17">
        <lane id="-E7_0" index="0" speed="13.89" length="71.28" shape="-105.98,55.26 -177.18,52.01"/>
        <lane id="-E7_1" index="1" speed="13.89" length="71.28" shape="-105.83,52.06 -177.04,48.81"/>
    </edge>
    <edge id="-E8" from="Junc4" to="Junc1" priority="-1" shape="-59.48,158.73 19.55,64.78">