<?xml version="1.0" encoding="UTF-8"?>

<!-- generated on 2025-04-25 15:39:31 by Eclipse SUMO sumo Version 1.22.0
-->

<sumoConfiguration xmlns:xsi="http://www.w3.org/2001/XMLSchema-instance" xsi:noNamespaceSchemaLocation="http://sumo.dlr.de/xsd/sumoConfiguration.xsd">

    <input>
        <net-file value="CN1.net.xml"/>
        <route-files value="CN1.rou.xml"/>
    </input>

</sumoConfiguration>
