<?xml version="1.0" encoding="UTF-8"?>

<!-- generated on 2025-04-17 10:56:41 by Eclipse SUMO duarouter Version 1.22.0
<duarouterConfiguration xmlns:xsi="http://www.w3.org/2001/XMLSchema-instance" xsi:noNamespaceSchemaLocation="http://sumo.dlr.de/xsd/duarouterConfiguration.xsd">

    <input>
        <net-file value="sumo3tri.net.xml"/>
        <route-files value="output_trips.trips.xml"/>
    </input>

    <output>
        <output-file value="routestri.rou.xml"/>
    </output>

</duarouterConfiguration>
-->

<routes xmlns:xsi="http://www.w3.org/2001/XMLSchema-instance" xsi:noNamespaceSchemaLocation="http://sumo.dlr.de/xsd/routes_file.xsd">
    <vehicle id="0" depart="0.00">
        <route edges="E6 EB0 -E0"/>
    </vehicle>
    <vehicle id="1" depart="1.00">
        <route edges="E0 -E2"/>
    </vehicle>
    <vehicle id="3" depart="3.00">
        <route edges="EB2 EB0 -E0"/>
    </vehicle>
    <vehicle id="4" depart="4.00">
        <route edges="E2 -E0"/>
    </vehicle>
    <vehicle id="5" depart="5.00">
        <route edges="-E1 -E5"/>
    </vehicle>
    <vehicle id="7" depart="7.00">
        <route edges="E6 -E5"/>
    </vehicle>
    <vehicle id="8" depart="8.00">
        <route edges="-E1 -E6"/>
    </vehicle>
    <vehicle id="11" depart="11.00">
        <route edges="E2 -E1"/>
    </vehicle>
    <vehicle id="12" depart="12.00">
        <route edges="EB2 EB0 -E0 -E3"/>
    </vehicle>
    <vehicle id="13" depart="13.00">
        <route edges="-E0"/>
    </vehicle>
    <vehicle id="14" depart="14.00">
        <route edges="EB1 E0 -E1 -E6"/>
    </vehicle>
    <vehicle id="17" depart="17.00">
        <route edges="E2 -E1 -E5"/>
    </vehicle>
    <vehicle id="18" depart="18.00">
        <route edges="EB1 E0 -E1 -E6"/>
    </vehicle>
    <vehicle id="19" depart="19.00">
        <route edges="EB1 E0 -E1 -E6"/>
    </vehicle>
    <vehicle id="20" depart="20.00">
        <route edges="EB0 -E0"/>
    </vehicle>
    <vehicle id="21" depart="21.00">
        <route edges="E0 -E2"/>
    </vehicle>
    <vehicle id="24" depart="24.00">
        <route edges="E6 EB0 -E0 -E3"/>
    </vehicle>
    <vehicle id="25" depart="25.00">
        <route edges="E2 -E1"/>
    </vehicle>
    <vehicle id="30" depart="30.00">
        <route edges="EB2 -E6"/>
    </vehicle>
    <vehicle id="34" depart="34.00">
        <route edges="E0 -E2"/>
    </vehicle>
    <vehicle id="36" depart="36.00">
        <route edges="EB1 E0 -E2"/>
    </vehicle>
    <vehicle id="37" depart="37.00">
        <route edges="E6 EB0 -E0 -E3"/>
    </vehicle>
    <vehicle id="39" depart="39.00">
        <route edges="E0 -E2"/>
    </vehicle>
    <vehicle id="40" depart="40.00">
        <route edges="E6 EB0 -E2"/>
    </vehicle>
    <vehicle id="41" depart="41.00">
        <route edges="E6 EB0"/>
    </vehicle>
    <vehicle id="42" depart="42.00">
        <route edges="E2 -E1"/>
    </vehicle>
    <vehicle id="44" depart="44.00">
        <route edges="-E0"/>
    </vehicle>
    <vehicle id="47" depart="47.00">
        <route edges="-E0 -E3"/>
    </vehicle>
    <vehicle id="52" depart="52.00">
        <route edges="E0 -E1 -E6"/>
    </vehicle>
    <vehicle id="55" depart="55.00">
        <route edges="EB1 E0 -E2"/>
    </vehicle>
    <vehicle id="56" depart="56.00">
        <route edges="E3 E0 -E1"/>
    </vehicle>
    <vehicle id="58" depart="58.00">
        <route edges="E0 -E1 -E6"/>
    </vehicle>
    <vehicle id="61" depart="61.00">
        <route edges="EB1 E0 -E1 -E5"/>
    </vehicle>
    <vehicle id="64" depart="64.00">
        <route edges="EB1 E0"/>
    </vehicle>
    <vehicle id="70" depart="70.00">
        <route edges="E3 E0 -E1 -E5"/>
    </vehicle>
    <vehicle id="71" depart="71.00">
        <route edges="E0"/>
    </vehicle>
    <vehicle id="72" depart="72.00">
        <route edges="E2 -E1"/>
    </vehicle>
    <vehicle id="73" depart="73.00">
        <route edges="E3 -EB1"/>
    </vehicle>
    <vehicle id="75" depart="75.00">
        <route edges="EB2 -E6"/>
    </vehicle>
    <vehicle id="76" depart="76.00">
        <route edges="E2 -E1 -E5"/>
    </vehicle>
    <vehicle id="78" depart="78.00">
        <route edges="E2 -E1 -E6"/>
    </vehicle>
    <vehicle id="79" depart="79.00">
        <route edges="E0 -E1"/>
    </vehicle>
    <vehicle id="84" depart="84.00">
        <route edges="-E1"/>
    </vehicle>
    <vehicle id="85" depart="85.00">
        <route edges="EB2 -E6"/>
    </vehicle>
    <vehicle id="86" depart="86.00">
        <route edges="E3 E0"/>
    </vehicle>
    <vehicle id="87" depart="87.00">
        <route edges="EB1 E0 -E1"/>
    </vehicle>
    <vehicle id="88" depart="88.00">
        <route edges="-E0 -E3"/>
    </vehicle>
    <vehicle id="89" depart="89.00">
        <route edges="E2 -E1 -E5"/>
    </vehicle>
    <vehicle id="91" depart="91.00">
        <route edges="EB2 EB0 -E0"/>
    </vehicle>
    <vehicle id="92" depart="92.00">
        <route edges="E2 -E0 -E3"/>
    </vehicle>
    <vehicle id="93" depart="93.00">
        <route edges="EB1 E0 -E2"/>
    </vehicle>
    <vehicle id="94" depart="94.00">
        <route edges="-E1 -E5"/>
    </vehicle>
    <vehicle id="100" depart="100.00">
        <route edges="EB2 EB0"/>
    </vehicle>
    <vehicle id="101" depart="101.00">
        <route edges="EB1 E0 -E1"/>
    </vehicle>
    <vehicle id="102" depart="102.00">
        <route edges="E3 E0 -E1"/>
    </vehicle>
    <vehicle id="103" depart="103.00">
        <route edges="E2 -E0"/>
    </vehicle>
    <vehicle id="105" depart="105.00">
        <route edges="E0"/>
    </vehicle>
    <vehicle id="107" depart="107.00">
        <route edges="EB2 EB0"/>
    </vehicle>
    <vehicle id="110" depart="110.00">
        <route edges="EB2 -E6"/>
    </vehicle>
    <vehicle id="111" depart="111.00">
        <route edges="E3 -EB1"/>
    </vehicle>
    <vehicle id="113" depart="113.00">
        <route edges="E3 E0"/>
    </vehicle>
    <vehicle id="117" depart="117.00">
        <route edges="E0 -E1"/>
    </vehicle>
    <vehicle id="118" depart="118.00">
        <route edges="EB2 EB0 -E2"/>
    </vehicle>
    <vehicle id="120" depart="120.00">
        <route edges="E2 -E1 -E6"/>
    </vehicle>
    <vehicle id="124" depart="124.00">
        <route edges="EB0 -E2"/>
    </vehicle>
    <vehicle id="127" depart="127.00">
        <route edges="EB2 EB0"/>
    </vehicle>
    <vehicle id="130" depart="130.00">
        <route edges="EB1 E0"/>
    </vehicle>
    <vehicle id="131" depart="131.00">
        <route edges="E2 -E1"/>
    </vehicle>
    <vehicle id="133" depart="133.00">
        <route edges="E6 EB0"/>
    </vehicle>
    <vehicle id="134" depart="134.00">
        <route edges="E6 EB0 -E0"/>
    </vehicle>
    <vehicle id="135" depart="135.00">
        <route edges="EB1 E0 -E2"/>
    </vehicle>
    <vehicle id="136" depart="136.00">
        <route edges="E6 EB0"/>
    </vehicle>
    <vehicle id="137" depart="137.00">
        <route edges="-E1"/>
    </vehicle>
    <vehicle id="139" depart="139.00">
        <route edges="E0 -E1 -E6"/>
    </vehicle>
    <vehicle id="141" depart="141.00">
        <route edges="E6 EB0 -E2"/>
    </vehicle>
    <vehicle id="146" depart="146.00">
        <route edges="E6 EB0 -E2"/>
    </vehicle>
    <vehicle id="148" depart="148.00">
        <route edges="E2 -E0"/>
    </vehicle>
    <vehicle id="151" depart="151.00">
        <route edges="EB1 E0 -E1 -E6"/>
    </vehicle>
    <vehicle id="152" depart="152.00">
        <route edges="-E1"/>
    </vehicle>
    <vehicle id="154" depart="154.00">
        <route edges="EB1 E0"/>
    </vehicle>
    <vehicle id="157" depart="157.00">
        <route edges="EB1 E0"/>
    </vehicle>
    <vehicle id="158" depart="158.00">
        <route edges="E2 -E1 -E6"/>
    </vehicle>
    <vehicle id="161" depart="161.00">
        <route edges="EB1 E0"/>
    </vehicle>
    <vehicle id="164" depart="164.00">
        <route edges="EB1 E0"/>
    </vehicle>
    <vehicle id="165" depart="165.00">
        <route edges="EB1 E0 -E2"/>
    </vehicle>
    <vehicle id="167" depart="167.00">
        <route edges="EB1 E0"/>
    </vehicle>
    <vehicle id="168" depart="168.00">
        <route edges="E0"/>
    </vehicle>
    <vehicle id="169" depart="169.00">
        <route edges="E3 E0 -E2"/>
    </vehicle>
    <vehicle id="170" depart="170.00">
        <route edges="EB1 E0 -E2"/>
    </vehicle>
    <vehicle id="172" depart="172.00">
        <route edges="E0"/>
    </vehicle>
    <vehicle id="173" depart="173.00">
        <route edges="EB2 EB0 -E2"/>
    </vehicle>
    <vehicle id="174" depart="174.00">
        <route edges="E6 EB0 -E0 -E3"/>
    </vehicle>
    <vehicle id="178" depart="178.00">
        <route edges="EB2 EB0 -E2"/>
    </vehicle>
    <vehicle id="179" depart="179.00">
        <route edges="-E0 -E3"/>
    </vehicle>
    <vehicle id="180" depart="180.00">
        <route edges="EB0 -E2"/>
    </vehicle>
    <vehicle id="181" depart="181.00">
        <route edges="E6 -E5"/>
    </vehicle>
    <vehicle id="182" depart="182.00">
        <route edges="E2 -E1 -E6"/>
    </vehicle>
    <vehicle id="185" depart="185.00">
        <route edges="E3 -EB1"/>
    </vehicle>
    <vehicle id="187" depart="187.00">
        <route edges="E2 -E0"/>
    </vehicle>
    <vehicle id="188" depart="188.00">
        <route edges="E6 EB0 -E2"/>
    </vehicle>
    <vehicle id="189" depart="189.00">
        <route edges="E0"/>
    </vehicle>
    <vehicle id="190" depart="190.00">
        <route edges="EB0 -E2"/>
    </vehicle>
    <vehicle id="195" depart="195.00">
        <route edges="EB2 -E6"/>
    </vehicle>
    <vehicle id="196" depart="196.00">
        <route edges="E0 -E1 -E5"/>
    </vehicle>
    <vehicle id="198" depart="198.00">
        <route edges="E2 -E1 -E6"/>
    </vehicle>
    <vehicle id="199" depart="199.00">
        <route edges="E6 -E5"/>
    </vehicle>
</routes>
