<?xml version="1.0" encoding="UTF-8"?>

<!-- generated on 2025-04-21 14:07:20 by Eclipse SUMO duarouter Version 1.22.0
<duarouterConfiguration xmlns:xsi="http://www.w3.org/2001/XMLSchema-instance" xsi:noNamespaceSchemaLocation="http://sumo.dlr.de/xsd/duarouterConfiguration.xsd">

    <input>
        <net-file value="C:\Users\bobbi\Documents\YEAR 3\sumo3\TESTS\S4E16L.net.xml"/>
        <route-files value="C:\Users\bobbi\Documents\YEAR 3\sumo3\TESTS\output_trips.trips.xml"/>
    </input>

    <output>
        <output-file value="C:\Users\bobbi\Documents\YEAR 3\sumo3\TESTS\S4E16L.rou.xml"/>
    </output>

    <report>
        <ignore-errors value="true"/>
    </report>

</duarouterConfiguration>
-->

<routes xmlns:xsi="http://www.w3.org/2001/XMLSchema-instance" xsi:noNamespaceSchemaLocation="http://sumo.dlr.de/xsd/routes_file.xsd">
    <vehicle id="0" depart="0.00">
        <route edges="E3 -E0"/>
    </vehicle>
    <vehicle id="1" depart="0.50">
        <route edges="E2 -E0"/>
    </vehicle>
    <vehicle id="4" depart="2.00">
        <route edges="E2 -E0"/>
    </vehicle>
    <vehicle id="5" depart="2.50">
        <route edges="E0 -E2"/>
    </vehicle>
    <vehicle id="8" depart="4.00">
        <route edges="E0 -E2"/>
    </vehicle>
    <vehicle id="10" depart="5.00">
        <route edges="EB0 -E2"/>
    </vehicle>
    <vehicle id="11" depart="5.50">
        <route edges="E2 -E0"/>
    </vehicle>
    <vehicle id="14" depart="7.00">
        <route edges="EB0 -E2"/>
    </vehicle>
    <vehicle id="15" depart="7.50">
        <route edges="EB0 -E2"/>
    </vehicle>
    <vehicle id="18" depart="9.00">
        <route edges="EB0 -E2"/>
    </vehicle>
    <vehicle id="19" depart="9.50">
        <route edges="EB0 -E2"/>
    </vehicle>
    <vehicle id="20" depart="10.00">
        <route edges="E3 -E0"/>
    </vehicle>
    <vehicle id="21" depart="10.50">
        <route edges="E0 -E1"/>
    </vehicle>
    <vehicle id="23" depart="11.50">
        <route edges="E0 -E1"/>
    </vehicle>
    <vehicle id="24" depart="12.00">
        <route edges="E3 -E1"/>
    </vehicle>
    <vehicle id="25" depart="12.50">
        <route edges="E2 -E0"/>
    </vehicle>
    <vehicle id="26" depart="13.00">
        <route edges="E2 -E3"/>
    </vehicle>
    <vehicle id="28" depart="14.00">
        <route edges="E0 -E2"/>
    </vehicle>
    <vehicle id="29" depart="14.50">
        <route edges="E0 -E1"/>
    </vehicle>
    <vehicle id="30" depart="15.00">
        <route edges="EB0 -E2"/>
    </vehicle>
    <vehicle id="32" depart="16.00">
        <route edges="EB0 -E3"/>
    </vehicle>
    <vehicle id="37" depart="18.50">
        <route edges="E3 -E1"/>
    </vehicle>
    <vehicle id="39" depart="19.50">
        <route edges="E2 -E0"/>
    </vehicle>
    <vehicle id="40" depart="20.00">
        <route edges="E3 -E1"/>
    </vehicle>
    <vehicle id="42" depart="21.00">
        <route edges="E2 -E0"/>
    </vehicle>
    <vehicle id="43" depart="21.50">
        <route edges="EB0 -E2"/>
    </vehicle>
    <vehicle id="45" depart="22.50">
        <route edges="E0 -E2"/>
    </vehicle>
    <vehicle id="47" depart="23.50">
        <route edges="E0 -E1"/>
    </vehicle>
    <vehicle id="48" depart="24.00">
        <route edges="EB0 -E2"/>
    </vehicle>
    <vehicle id="49" depart="24.50">
        <route edges="EB0 -E3"/>
    </vehicle>
    <vehicle id="50" depart="25.00">
        <route edges="E0 -E2"/>
    </vehicle>
    <vehicle id="53" depart="26.50">
        <route edges="E0 -E1"/>
    </vehicle>
    <vehicle id="54" depart="27.00">
        <route edges="E2 -E3"/>
    </vehicle>
    <vehicle id="56" depart="28.00">
        <route edges="E3 -E0"/>
    </vehicle>
    <vehicle id="57" depart="28.50">
        <route edges="EB0 -E3"/>
    </vehicle>
    <vehicle id="59" depart="29.50">
        <route edges="E3 -E0"/>
    </vehicle>
    <vehicle id="60" depart="30.00">
        <route edges="EB0 -E2"/>
    </vehicle>
    <vehicle id="61" depart="30.50">
        <route edges="EB0 -E2"/>
    </vehicle>
    <vehicle id="62" depart="31.00">
        <route edges="E0 -E1"/>
    </vehicle>
    <vehicle id="64" depart="32.00">
        <route edges="EB0 -E3"/>
    </vehicle>
    <vehicle id="65" depart="32.50">
        <route edges="E2 -E0"/>
    </vehicle>
    <vehicle id="66" depart="33.00">
        <route edges="EB0 -E3"/>
    </vehicle>
    <vehicle id="67" depart="33.50">
        <route edges="E0 -E1"/>
    </vehicle>
    <vehicle id="71" depart="35.50">
        <route edges="E2 -E3"/>
    </vehicle>
    <vehicle id="72" depart="36.00">
        <route edges="E2 -E0"/>
    </vehicle>
    <vehicle id="74" depart="37.00">
        <route edges="E0 -E1"/>
    </vehicle>
    <vehicle id="75" depart="37.50">
        <route edges="EB0 -E2"/>
    </vehicle>
    <vehicle id="80" depart="40.00">
        <route edges="E0 -E2"/>
    </vehicle>
    <vehicle id="83" depart="41.50">
        <route edges="E0 -E2"/>
    </vehicle>
    <vehicle id="85" depart="42.50">
        <route edges="EB0 -E2"/>
    </vehicle>
    <vehicle id="86" depart="43.00">
        <route edges="E2 -E3"/>
    </vehicle>
    <vehicle id="88" depart="44.00">
        <route edges="E0 -E1"/>
    </vehicle>
    <vehicle id="94" depart="47.00">
        <route edges="E0 -E1"/>
    </vehicle>
    <vehicle id="97" depart="48.50">
        <route edges="E2 -E3"/>
    </vehicle>
    <vehicle id="98" depart="49.00">
        <route edges="E3 -E0"/>
    </vehicle>
    <vehicle id="99" depart="49.50">
        <route edges="EB0 -E3"/>
    </vehicle>
    <vehicle id="100" depart="50.00">
        <route edges="EB0 -E3"/>
    </vehicle>
    <vehicle id="102" depart="51.00">
        <route edges="E2 -E0"/>
    </vehicle>
    <vehicle id="103" depart="51.50">
        <route edges="E2 -E0"/>
    </vehicle>
    <vehicle id="104" depart="52.00">
        <route edges="E2 -E3"/>
    </vehicle>
    <vehicle id="105" depart="52.50">
        <route edges="E2 -E3"/>
    </vehicle>
    <vehicle id="107" depart="53.50">
        <route edges="EB0 -E3"/>
    </vehicle>
    <vehicle id="109" depart="54.50">
        <route edges="E0 -E1"/>
    </vehicle>
    <vehicle id="110" depart="55.00">
        <route edges="EB0 -E2"/>
    </vehicle>
    <vehicle id="112" depart="56.00">
        <route edges="E0 -E2"/>
    </vehicle>
    <vehicle id="122" depart="61.00">
        <route edges="E0 -E2"/>
    </vehicle>
    <vehicle id="123" depart="61.50">
        <route edges="E0 -E1"/>
    </vehicle>
    <vehicle id="124" depart="62.00">
        <route edges="E3 -E1"/>
    </vehicle>
    <vehicle id="125" depart="62.50">
        <route edges="E2 -E3"/>
    </vehicle>
    <vehicle id="126" depart="63.00">
        <route edges="E0 -E1"/>
    </vehicle>
    <vehicle id="127" depart="63.50">
        <route edges="EB0 -E3"/>
    </vehicle>
    <vehicle id="129" depart="64.50">
        <route edges="E2 -E3"/>
    </vehicle>
    <vehicle id="130" depart="65.00">
        <route edges="EB0 -E3"/>
    </vehicle>
    <vehicle id="131" depart="65.50">
        <route edges="E2 -E0"/>
    </vehicle>
    <vehicle id="132" depart="66.00">
        <route edges="EB0 -E2"/>
    </vehicle>
    <vehicle id="134" depart="67.00">
        <route edges="E3 -E0"/>
    </vehicle>
    <vehicle id="138" depart="69.00">
        <route edges="E0 -E2"/>
    </vehicle>
    <vehicle id="140" depart="70.00">
        <route edges="E3 -E0"/>
    </vehicle>
    <vehicle id="141" depart="70.50">
        <route edges="E3 -E1"/>
    </vehicle>
    <vehicle id="142" depart="71.00">
        <route edges="E2 -E3"/>
    </vehicle>
    <vehicle id="146" depart="73.00">
        <route edges="E3 -E1"/>
    </vehicle>
    <vehicle id="148" depart="74.00">
        <route edges="E2 -E0"/>
    </vehicle>
    <vehicle id="150" depart="75.00">
        <route edges="EB0 -E2"/>
    </vehicle>
    <vehicle id="151" depart="75.50">
        <route edges="EB0 -E2"/>
    </vehicle>
    <vehicle id="153" depart="76.50">
        <route edges="E2 -E3"/>
    </vehicle>
    <vehicle id="154" depart="77.00">
        <route edges="EB0 -E3"/>
    </vehicle>
    <vehicle id="157" depart="78.50">
        <route edges="EB0 -E3"/>
    </vehicle>
    <vehicle id="160" depart="80.00">
        <route edges="EB0 -E3"/>
    </vehicle>
    <vehicle id="161" depart="80.50">
        <route edges="EB0 -E3"/>
    </vehicle>
    <vehicle id="162" depart="81.00">
        <route edges="E0 -E2"/>
    </vehicle>
    <vehicle id="163" depart="81.50">
        <route edges="E2 -E3"/>
    </vehicle>
    <vehicle id="164" depart="82.00">
        <route edges="EB0 -E3"/>
    </vehicle>
    <vehicle id="167" depart="83.50">
        <route edges="EB0 -E3"/>
    </vehicle>
    <vehicle id="172" depart="86.00">
        <route edges="E2 -E3"/>
    </vehicle>
    <vehicle id="174" depart="87.00">
        <route edges="E3 -E1"/>
    </vehicle>
    <vehicle id="175" depart="87.50">
        <route edges="EB0 -E2"/>
    </vehicle>
    <vehicle id="179" depart="89.50">
        <route edges="E0 -E1"/>
    </vehicle>
    <vehicle id="180" depart="90.00">
        <route edges="E3 -E1"/>
    </vehicle>
    <vehicle id="187" depart="93.50">
        <route edges="E2 -E0"/>
    </vehicle>
    <vehicle id="188" depart="94.00">
        <route edges="E3 -E1"/>
    </vehicle>
    <vehicle id="189" depart="94.50">
        <route edges="E2 -E3"/>
    </vehicle>
    <vehicle id="190" depart="95.00">
        <route edges="E3 -E1"/>
    </vehicle>
    <vehicle id="193" depart="96.50">
        <route edges="E0 -E1"/>
    </vehicle>
    <vehicle id="194" depart="97.00">
        <route edges="EB0 -E2"/>
    </vehicle>
    <vehicle id="195" depart="97.50">
        <route edges="EB0 -E2"/>
    </vehicle>
    <vehicle id="197" depart="98.50">
        <route edges="E0 -E1"/>
    </vehicle>
    <vehicle id="199" depart="99.50">
        <route edges="E3 -E1"/>
    </vehicle>
    <vehicle id="200" depart="100.00">
        <route edges="E2 -E0"/>
    </vehicle>
    <vehicle id="201" depart="100.50">
        <route edges="E2 -E3"/>
    </vehicle>
    <vehicle id="203" depart="101.50">
        <route edges="E0 -E2"/>
    </vehicle>
    <vehicle id="204" depart="102.00">
        <route edges="E3 -E1"/>
    </vehicle>
    <vehicle id="205" depart="102.50">
        <route edges="EB0 -E3"/>
    </vehicle>
    <vehicle id="206" depart="103.00">
        <route edges="E3 -E0"/>
    </vehicle>
    <vehicle id="208" depart="104.00">
        <route edges="E0 -E1"/>
    </vehicle>
    <vehicle id="211" depart="105.50">
        <route edges="E0 -E2"/>
    </vehicle>
    <vehicle id="212" depart="106.00">
        <route edges="E2 -E0"/>
    </vehicle>
    <vehicle id="213" depart="106.50">
        <route edges="E3 -E0"/>
    </vehicle>
    <vehicle id="214" depart="107.00">
        <route edges="EB0 -E3"/>
    </vehicle>
    <vehicle id="215" depart="107.50">
        <route edges="E0 -E1"/>
    </vehicle>
    <vehicle id="217" depart="108.50">
        <route edges="E3 -E0"/>
    </vehicle>
    <vehicle id="219" depart="109.50">
        <route edges="E2 -E3"/>
    </vehicle>
    <vehicle id="222" depart="111.00">
        <route edges="EB0 -E2"/>
    </vehicle>
    <vehicle id="224" depart="112.00">
        <route edges="EB0 -E2"/>
    </vehicle>
    <vehicle id="225" depart="112.50">
        <route edges="EB0 -E2"/>
    </vehicle>
    <vehicle id="227" depart="113.50">
        <route edges="E0 -E2"/>
    </vehicle>
    <vehicle id="228" depart="114.00">
        <route edges="EB0 -E2"/>
    </vehicle>
    <vehicle id="229" depart="114.50">
        <route edges="E3 -E1"/>
    </vehicle>
    <vehicle id="230" depart="115.00">
        <route edges="E0 -E1"/>
    </vehicle>
    <vehicle id="232" depart="116.00">
        <route edges="E3 -E0"/>
    </vehicle>
    <vehicle id="233" depart="116.50">
        <route edges="E0 -E2"/>
    </vehicle>
    <vehicle id="234" depart="117.00">
        <route edges="E3 -E0"/>
    </vehicle>
    <vehicle id="236" depart="118.00">
        <route edges="E2 -E0"/>
    </vehicle>
    <vehicle id="237" depart="118.50">
        <route edges="E2 -E3"/>
    </vehicle>
    <vehicle id="239" depart="119.50">
        <route edges="EB0 -E3"/>
    </vehicle>
    <vehicle id="240" depart="120.00">
        <route edges="E2 -E0"/>
    </vehicle>
    <vehicle id="241" depart="120.50">
        <route edges="E2 -E3"/>
    </vehicle>
    <vehicle id="242" depart="121.00">
        <route edges="EB0 -E3"/>
    </vehicle>
    <vehicle id="246" depart="123.00">
        <route edges="E2 -E0"/>
    </vehicle>
    <vehicle id="248" depart="124.00">
        <route edges="E2 -E0"/>
    </vehicle>
    <vehicle id="249" depart="124.50">
        <route edges="E2 -E0"/>
    </vehicle>
    <vehicle id="250" depart="125.00">
        <route edges="E3 -E0"/>
    </vehicle>
    <vehicle id="252" depart="126.00">
        <route edges="E0 -E2"/>
    </vehicle>
    <vehicle id="253" depart="126.50">
        <route edges="E0 -E1"/>
    </vehicle>
    <vehicle id="254" depart="127.00">
        <route edges="E0 -E1"/>
    </vehicle>
    <vehicle id="255" depart="127.50">
        <route edges="E0 -E1"/>
    </vehicle>
    <vehicle id="257" depart="128.50">
        <route edges="EB0 -E3"/>
    </vehicle>
    <vehicle id="258" depart="129.00">
        <route edges="E2 -E0"/>
    </vehicle>
    <vehicle id="259" depart="129.50">
        <route edges="E0 -E2"/>
    </vehicle>
    <vehicle id="265" depart="132.50">
        <route edges="E0 -E2"/>
    </vehicle>
    <vehicle id="266" depart="133.00">
        <route edges="E3 -E0"/>
    </vehicle>
    <vehicle id="268" depart="134.00">
        <route edges="E0 -E2"/>
    </vehicle>
    <vehicle id="269" depart="134.50">
        <route edges="E3 -E0"/>
    </vehicle>
    <vehicle id="270" depart="135.00">
        <route edges="EB0 -E3"/>
    </vehicle>
    <vehicle id="274" depart="137.00">
        <route edges="E3 -E0"/>
    </vehicle>
    <vehicle id="277" depart="138.50">
        <route edges="EB0 -E2"/>
    </vehicle>
    <vehicle id="281" depart="140.50">
        <route edges="E3 -E1"/>
    </vehicle>
    <vehicle id="282" depart="141.00">
        <route edges="EB0 -E3"/>
    </vehicle>
    <vehicle id="285" depart="142.50">
        <route edges="E3 -E1"/>
    </vehicle>
    <vehicle id="287" depart="143.50">
        <route edges="E2 -E3"/>
    </vehicle>
    <vehicle id="288" depart="144.00">
        <route edges="E3 -E1"/>
    </vehicle>
    <vehicle id="290" depart="145.00">
        <route edges="E2 -E3"/>
    </vehicle>
    <vehicle id="294" depart="147.00">
        <route edges="E2 -E0"/>
    </vehicle>
    <vehicle id="297" depart="148.50">
        <route edges="E2 -E3"/>
    </vehicle>
    <vehicle id="298" depart="149.00">
        <route edges="E3 -E1"/>
    </vehicle>
    <vehicle id="300" depart="150.00">
        <route edges="E0 -E2"/>
    </vehicle>
    <vehicle id="301" depart="150.50">
        <route edges="E2 -E3"/>
    </vehicle>
    <vehicle id="303" depart="151.50">
        <route edges="E2 -E3"/>
    </vehicle>
    <vehicle id="305" depart="152.50">
        <route edges="E3 -E1"/>
    </vehicle>
    <vehicle id="306" depart="153.00">
        <route edges="E3 -E1"/>
    </vehicle>
    <vehicle id="307" depart="153.50">
        <route edges="E3 -E1"/>
    </vehicle>
    <vehicle id="308" depart="154.00">
        <route edges="E3 -E1"/>
    </vehicle>
    <vehicle id="309" depart="154.50">
        <route edges="E3 -E1"/>
    </vehicle>
    <vehicle id="310" depart="155.00">
        <route edges="E2 -E0"/>
    </vehicle>
    <vehicle id="315" depart="157.50">
        <route edges="EB0 -E2"/>
    </vehicle>
    <vehicle id="316" depart="158.00">
        <route edges="E2 -E0"/>
    </vehicle>
    <vehicle id="319" depart="159.50">
        <route edges="E3 -E1"/>
    </vehicle>
    <vehicle id="320" depart="160.00">
        <route edges="EB0 -E2"/>
    </vehicle>
    <vehicle id="321" depart="160.50">
        <route edges="E3 -E0"/>
    </vehicle>
    <vehicle id="323" depart="161.50">
        <route edges="EB0 -E2"/>
    </vehicle>
    <vehicle id="328" depart="164.00">
        <route edges="E0 -E2"/>
    </vehicle>
    <vehicle id="330" depart="165.00">
        <route edges="E3 -E1"/>
    </vehicle>
    <vehicle id="332" depart="166.00">
        <route edges="EB0 -E2"/>
    </vehicle>
    <vehicle id="334" depart="167.00">
        <route edges="E3 -E1"/>
    </vehicle>
    <vehicle id="335" depart="167.50">
        <route edges="E2 -E3"/>
    </vehicle>
    <vehicle id="340" depart="170.00">
        <route edges="E3 -E0"/>
    </vehicle>
    <vehicle id="342" depart="171.00">
        <route edges="E0 -E1"/>
    </vehicle>
    <vehicle id="343" depart="171.50">
        <route edges="E3 -E1"/>
    </vehicle>
    <vehicle id="344" depart="172.00">
        <route edges="E0 -E2"/>
    </vehicle>
    <vehicle id="345" depart="172.50">
        <route edges="E3 -E1"/>
    </vehicle>
    <vehicle id="347" depart="173.50">
        <route edges="EB0 -E2"/>
    </vehicle>
    <vehicle id="352" depart="176.00">
        <route edges="E0 -E1"/>
    </vehicle>
    <vehicle id="354" depart="177.00">
        <route edges="E2 -E0"/>
    </vehicle>
    <vehicle id="356" depart="178.00">
        <route edges="EB0 -E2"/>
    </vehicle>
    <vehicle id="357" depart="178.50">
        <route edges="E2 -E0"/>
    </vehicle>
    <vehicle id="358" depart="179.00">
        <route edges="E0 -E1"/>
    </vehicle>
    <vehicle id="361" depart="180.50">
        <route edges="EB0 -E2"/>
    </vehicle>
    <vehicle id="362" depart="181.00">
        <route edges="EB0 -E3"/>
    </vehicle>
    <vehicle id="363" depart="181.50">
        <route edges="E3 -E1"/>
    </vehicle>
    <vehicle id="368" depart="184.00">
        <route edges="E2 -E0"/>
    </vehicle>
    <vehicle id="372" depart="186.00">
        <route edges="E2 -E3"/>
    </vehicle>
    <vehicle id="373" depart="186.50">
        <route edges="EB0 -E2"/>
    </vehicle>
    <vehicle id="375" depart="187.50">
        <route edges="E2 -E3"/>
    </vehicle>
    <vehicle id="377" depart="188.50">
        <route edges="EB0 -E2"/>
    </vehicle>
    <vehicle id="378" depart="189.00">
        <route edges="E3 -E1"/>
    </vehicle>
    <vehicle id="379" depart="189.50">
        <route edges="E0 -E1"/>
    </vehicle>
    <vehicle id="380" depart="190.00">
        <route edges="EB0 -E2"/>
    </vehicle>
    <vehicle id="385" depart="192.50">
        <route edges="E3 -E0"/>
    </vehicle>
    <vehicle id="386" depart="193.00">
        <route edges="E0 -E2"/>
    </vehicle>
    <vehicle id="387" depart="193.50">
        <route edges="E3 -E0"/>
    </vehicle>
    <vehicle id="388" depart="194.00">
        <route edges="EB0 -E3"/>
    </vehicle>
    <vehicle id="389" depart="194.50">
        <route edges="E2 -E0"/>
    </vehicle>
    <vehicle id="392" depart="196.00">
        <route edges="E2 -E3"/>
    </vehicle>
    <vehicle id="394" depart="197.00">
        <route edges="E3 -E1"/>
    </vehicle>
    <vehicle id="395" depart="197.50">
        <route edges="EB0 -E2"/>
    </vehicle>
    <vehicle id="396" depart="198.00">
        <route edges="EB0 -E3"/>
    </vehicle>
    <vehicle id="397" depart="198.50">
        <route edges="E2 -E3"/>
    </vehicle>
    <vehicle id="398" depart="199.00">
        <route edges="E2 -E3"/>
    </vehicle>
    <vehicle id="402" depart="201.00">
        <route edges="E2 -E0"/>
    </vehicle>
    <vehicle id="403" depart="201.50">
        <route edges="E3 -E1"/>
    </vehicle>
    <vehicle id="406" depart="203.00">
        <route edges="E0 -E2"/>
    </vehicle>
    <vehicle id="407" depart="203.50">
        <route edges="E3 -E0"/>
    </vehicle>
    <vehicle id="413" depart="206.50">
        <route edges="E0 -E2"/>
    </vehicle>
    <vehicle id="416" depart="208.00">
        <route edges="E3 -E1"/>
    </vehicle>
    <vehicle id="417" depart="208.50">
        <route edges="E3 -E1"/>
    </vehicle>
    <vehicle id="418" depart="209.00">
        <route edges="E3 -E0"/>
    </vehicle>
    <vehicle id="419" depart="209.50">
        <route edges="E2 -E3"/>
    </vehicle>
    <vehicle id="422" depart="211.00">
        <route edges="EB0 -E3"/>
    </vehicle>
    <vehicle id="426" depart="213.00">
        <route edges="E0 -E2"/>
    </vehicle>
    <vehicle id="427" depart="213.50">
        <route edges="EB0 -E3"/>
    </vehicle>
    <vehicle id="428" depart="214.00">
        <route edges="E3 -E1"/>
    </vehicle>
    <vehicle id="429" depart="214.50">
        <route edges="E0 -E2"/>
    </vehicle>
    <vehicle id="434" depart="217.00">
        <route edges="E0 -E2"/>
    </vehicle>
    <vehicle id="437" depart="218.50">
        <route edges="EB0 -E2"/>
    </vehicle>
    <vehicle id="439" depart="219.50">
        <route edges="E0 -E1"/>
    </vehicle>
    <vehicle id="442" depart="221.00">
        <route edges="EB0 -E2"/>
    </vehicle>
    <vehicle id="443" depart="221.50">
        <route edges="E0 -E1"/>
    </vehicle>
    <vehicle id="445" depart="222.50">
        <route edges="E3 -E1"/>
    </vehicle>
    <vehicle id="446" depart="223.00">
        <route edges="E2 -E3"/>
    </vehicle>
    <vehicle id="447" depart="223.50">
        <route edges="E0 -E1"/>
    </vehicle>
    <vehicle id="448" depart="224.00">
        <route edges="E2 -E0"/>
    </vehicle>
    <vehicle id="451" depart="225.50">
        <route edges="EB0 -E2"/>
    </vehicle>
    <vehicle id="454" depart="227.00">
        <route edges="E0 -E2"/>
    </vehicle>
    <vehicle id="455" depart="227.50">
        <route edges="E2 -E3"/>
    </vehicle>
    <vehicle id="456" depart="228.00">
        <route edges="E2 -E3"/>
    </vehicle>
    <vehicle id="457" depart="228.50">
        <route edges="E3 -E1"/>
    </vehicle>
    <vehicle id="462" depart="231.00">
        <route edges="E3 -E1"/>
    </vehicle>
    <vehicle id="464" depart="232.00">
        <route edges="E3 -E0"/>
    </vehicle>
    <vehicle id="471" depart="235.50">
        <route edges="EB0 -E2"/>
    </vehicle>
    <vehicle id="472" depart="236.00">
        <route edges="E2 -E0"/>
    </vehicle>
    <vehicle id="474" depart="237.00">
        <route edges="EB0 -E3"/>
    </vehicle>
    <vehicle id="476" depart="238.00">
        <route edges="EB0 -E3"/>
    </vehicle>
    <vehicle id="477" depart="238.50">
        <route edges="E2 -E3"/>
    </vehicle>
    <vehicle id="478" depart="239.00">
        <route edges="E0 -E2"/>
    </vehicle>
    <vehicle id="481" depart="240.50">
        <route edges="EB0 -E3"/>
    </vehicle>
    <vehicle id="486" depart="243.00">
        <route edges="EB0 -E3"/>
    </vehicle>
    <vehicle id="491" depart="245.50">
        <route edges="E0 -E1"/>
    </vehicle>
    <vehicle id="494" depart="247.00">
        <route edges="E3 -E0"/>
    </vehicle>
    <vehicle id="495" depart="247.50">
        <route edges="E2 -E0"/>
    </vehicle>
    <vehicle id="499" depart="249.50">
        <route edges="EB0 -E3"/>
    </vehicle>
    <vehicle id="500" depart="250.00">
        <route edges="E0 -E2"/>
    </vehicle>
    <vehicle id="506" depart="253.00">
        <route edges="E3 -E0"/>
    </vehicle>
    <vehicle id="508" depart="254.00">
        <route edges="E0 -E2"/>
    </vehicle>
    <vehicle id="515" depart="257.50">
        <route edges="E2 -E0"/>
    </vehicle>
    <vehicle id="516" depart="258.00">
        <route edges="E3 -E0"/>
    </vehicle>
    <vehicle id="518" depart="259.00">
        <route edges="E0 -E1"/>
    </vehicle>
    <vehicle id="521" depart="260.50">
        <route edges="E3 -E1"/>
    </vehicle>
    <vehicle id="522" depart="261.00">
        <route edges="EB0 -E2"/>
    </vehicle>
    <vehicle id="523" depart="261.50">
        <route edges="E0 -E2"/>
    </vehicle>
    <vehicle id="525" depart="262.50">
        <route edges="EB0 -E3"/>
    </vehicle>
    <vehicle id="526" depart="263.00">
        <route edges="E3 -E1"/>
    </vehicle>
    <vehicle id="529" depart="264.50">
        <route edges="E3 -E1"/>
    </vehicle>
    <vehicle id="531" depart="265.50">
        <route edges="E0 -E2"/>
    </vehicle>
    <vehicle id="532" depart="266.00">
        <route edges="E0 -E1"/>
    </vehicle>
    <vehicle id="534" depart="267.00">
        <route edges="E2 -E3"/>
    </vehicle>
    <vehicle id="535" depart="267.50">
        <route edges="E3 -E1"/>
    </vehicle>
    <vehicle id="536" depart="268.00">
        <route edges="E3 -E0"/>
    </vehicle>
    <vehicle id="539" depart="269.50">
        <route edges="E3 -E0"/>
    </vehicle>
    <vehicle id="540" depart="270.00">
        <route edges="E2 -E0"/>
    </vehicle>
    <vehicle id="542" depart="271.00">
        <route edges="E2 -E0"/>
    </vehicle>
    <vehicle id="544" depart="272.00">
        <route edges="E2 -E0"/>
    </vehicle>
    <vehicle id="547" depart="273.50">
        <route edges="E0 -E2"/>
    </vehicle>
    <vehicle id="548" depart="274.00">
        <route edges="EB0 -E2"/>
    </vehicle>
    <vehicle id="550" depart="275.00">
        <route edges="E2 -E0"/>
    </vehicle>
    <vehicle id="552" depart="276.00">
        <route edges="EB0 -E3"/>
    </vehicle>
    <vehicle id="554" depart="277.00">
        <route edges="E3 -E1"/>
    </vehicle>
    <vehicle id="555" depart="277.50">
        <route edges="E3 -E0"/>
    </vehicle>
    <vehicle id="556" depart="278.00">
        <route edges="E3 -E0"/>
    </vehicle>
    <vehicle id="558" depart="279.00">
        <route edges="E2 -E3"/>
    </vehicle>
    <vehicle id="560" depart="280.00">
        <route edges="EB0 -E3"/>
    </vehicle>
    <vehicle id="561" depart="280.50">
        <route edges="EB0 -E2"/>
    </vehicle>
    <vehicle id="562" depart="281.00">
        <route edges="E3 -E0"/>
    </vehicle>
    <vehicle id="563" depart="281.50">
        <route edges="EB0 -E3"/>
    </vehicle>
    <vehicle id="564" depart="282.00">
        <route edges="E2 -E0"/>
    </vehicle>
    <vehicle id="565" depart="282.50">
        <route edges="E3 -E1"/>
    </vehicle>
    <vehicle id="566" depart="283.00">
        <route edges="E2 -E0"/>
    </vehicle>
    <vehicle id="567" depart="283.50">
        <route edges="EB0 -E2"/>
    </vehicle>
    <vehicle id="568" depart="284.00">
        <route edges="E2 -E0"/>
    </vehicle>
    <vehicle id="569" depart="284.50">
        <route edges="E3 -E0"/>
    </vehicle>
    <vehicle id="570" depart="285.00">
        <route edges="E3 -E0"/>
    </vehicle>
    <vehicle id="573" depart="286.50">
        <route edges="EB0 -E2"/>
    </vehicle>
    <vehicle id="575" depart="287.50">
        <route edges="E0 -E2"/>
    </vehicle>
    <vehicle id="576" depart="288.00">
        <route edges="E3 -E1"/>
    </vehicle>
    <vehicle id="577" depart="288.50">
        <route edges="E3 -E1"/>
    </vehicle>
    <vehicle id="581" depart="290.50">
        <route edges="E3 -E1"/>
    </vehicle>
    <vehicle id="582" depart="291.00">
        <route edges="E3 -E0"/>
    </vehicle>
    <vehicle id="584" depart="292.00">
        <route edges="E0 -E1"/>
    </vehicle>
    <vehicle id="587" depart="293.50">
        <route edges="E0 -E2"/>
    </vehicle>
    <vehicle id="588" depart="294.00">
        <route edges="E0 -E1"/>
    </vehicle>
    <vehicle id="590" depart="295.00">
        <route edges="EB0 -E3"/>
    </vehicle>
    <vehicle id="593" depart="296.50">
        <route edges="EB0 -E3"/>
    </vehicle>
    <vehicle id="595" depart="297.50">
        <route edges="E3 -E1"/>
    </vehicle>
    <vehicle id="597" depart="298.50">
        <route edges="E2 -E3"/>
    </vehicle>
    <vehicle id="604" depart="302.00">
        <route edges="E0 -E2"/>
    </vehicle>
    <vehicle id="605" depart="302.50">
        <route edges="E0 -E2"/>
    </vehicle>
    <vehicle id="611" depart="305.50">
        <route edges="E3 -E0"/>
    </vehicle>
    <vehicle id="613" depart="306.50">
        <route edges="EB0 -E3"/>
    </vehicle>
    <vehicle id="614" depart="307.00">
        <route edges="E2 -E3"/>
    </vehicle>
    <vehicle id="617" depart="308.50">
        <route edges="E3 -E0"/>
    </vehicle>
    <vehicle id="618" depart="309.00">
        <route edges="E0 -E1"/>
    </vehicle>
    <vehicle id="620" depart="310.00">
        <route edges="E0 -E2"/>
    </vehicle>
    <vehicle id="624" depart="312.00">
        <route edges="EB0 -E2"/>
    </vehicle>
    <vehicle id="625" depart="312.50">
        <route edges="E3 -E1"/>
    </vehicle>
    <vehicle id="628" depart="314.00">
        <route edges="EB0 -E2"/>
    </vehicle>
    <vehicle id="633" depart="316.50">
        <route edges="E3 -E0"/>
    </vehicle>
    <vehicle id="634" depart="317.00">
        <route edges="E0 -E1"/>
    </vehicle>
    <vehicle id="636" depart="318.00">
        <route edges="E0 -E1"/>
    </vehicle>
    <vehicle id="639" depart="319.50">
        <route edges="EB0 -E2"/>
    </vehicle>
    <vehicle id="641" depart="320.50">
        <route edges="E3 -E1"/>
    </vehicle>