<?xml version="1.0" encoding="UTF-8"?>

<!-- generated on 2025-04-21 19:13:31 by Eclipse SUMO netedit Version 1.22.0
<neteditConfiguration xmlns:xsi="http://www.w3.org/2001/XMLSchema-instance" xsi:noNamespaceSchemaLocation="http://sumo.dlr.de/xsd/neteditConfiguration.xsd">

    <input>
        <sumocfg-file value="C:\Users\bobbi\Documents\YEAR 3\sumo3\SN.sumocfg"/>
        <sumo-net-file value="C:\Users\bobbi\Documents\YEAR 3\sumo3\SN.net.xml"/>
    </input>

    <output>
        <output-file value="C:\Users\bobbi\Documents\YEAR 3\sumo3\SN.net.xml"/>
    </output>

    <processing>
        <geometry.min-radius.fix.railways value="false"/>
        <geometry.max-grade.fix value="false"/>
        <offset.disable-normalization value="true"/>
        <lefthand value="0"/>
    </processing>

    <junctions>
        <no-turnarounds value="true"/>
        <junctions.corner-detail value="5"/>
        <junctions.limit-turn-speed value="5.50"/>
        <rectangular-lane-cut value="0"/>
    </junctions>

    <pedestrian>
        <walkingareas value="0"/>
    </pedestrian>

</neteditConfiguration>
-->

<net version="1.20" junctionCornerDetail="5" limitTurnSpeed="5.50" xmlns:xsi="http://www.w3.org/2001/XMLSchema-instance" xsi:noNamespaceSchemaLocation="http://sumo.dlr.de/xsd/net_file.xsd">

    <location netOffset="0.00,0.00" convBoundary="-130.61,-97.73,281.23,294.08" origBoundary="-10000000000.00,-10000000000.00,10000000000.00,10000000000.00" projParameter="!"/>

    <edge id=":Junc0_0" function="internal">
        <lane id=":Junc0_0_0" index="0" speed="13.89" length="23.27" shape="-10.12,5.27 -33.35,6.57"/>
    </edge>
    <edge id=":Junc0_1" function="internal">
        <lane id=":Junc0_1_0" index="0" speed="9.67" length="21.15" shape="-10.10,2.07 -16.30,1.28 -20.73,-0.99 -23.38,-4.75 -24.25,-9.99"/>
    </edge>
    <edge id=":Junc0_2" function="internal">
        <lane id=":Junc0_2_0" index="0" speed="13.89" length="22.49" shape="-17.85,-9.97 -17.53,-3.67 -16.79,1.21 -16.06,6.09 -15.76,12.40"/>
    </edge>
    <edge id=":Junc0_3" function="internal">
        <lane id=":Junc0_3_0" index="0" speed="9.49" length="20.73" shape="-21.05,-9.98 -21.83,-4.02 -24.13,0.19 -27.94,2.65 -33.27,3.37"/>
    </edge>
    <edge id=":Junc0_4" function="internal">
        <lane id=":Junc0_4_0" index="0" speed="13.89" length="23.09" shape="-33.11,-3.02 -10.05,-4.33"/>
    </edge>
    <edge id=":Junc0_5" function="internal">
        <lane id=":Junc0_5_0" index="0" speed="9.75" length="21.23" shape="-33.19,0.18 -26.94,1.07 -22.48,3.41 -19.82,7.17 -18.96,12.38"/>
    </edge>
    <edge id=":Junc0_6" function="internal">
        <lane id=":Junc0_6_0" index="0" speed="13.89" length="22.47" shape="-25.36,12.34 -25.66,6.04 -26.39,1.17 -27.13,-3.70 -27.45,-10.00"/>
    </edge>
    <edge id=":Junc0_7" function="internal">
        <lane id=":Junc0_7_0" index="0" speed="9.54" length="20.63" shape="-22.16,12.36 -21.37,6.43 -19.10,2.21 -15.33,-0.31 -10.07,-1.13"/>
    </edge>
    <edge id=":Junc1_0" function="internal">
        <lane id=":Junc1_0_0" index="0" speed="13.89" length="21.55" shape="72.26,5.54 50.71,5.66"/>
    </edge>
    <edge id=":Junc1_1" function="internal">
        <lane id=":Junc1_1_0" index="0" speed="9.26" length="19.37" shape="72.25,2.34 67.00,1.61 63.24,-0.64 60.98,-4.38 60.23,-9.64"/>
    </edge>
    <edge id=":Junc1_2" function="internal">
        <lane id=":Junc1_2_0" index="0" speed="13.89" length="20.96" shape="66.63,-9.64 65.89,11.30"/>
    </edge>
    <edge id=":Junc1_3" function="internal">
        <lane id=":Junc1_3_0" index="0" speed="9.39" length="20.03" shape="63.43,-9.64 62.64,-4.32 60.26,-0.53 56.29,1.73 50.73,2.46"/>
    </edge>
    <edge id=":Junc1_4" function="internal">
        <lane id=":Junc1_4_0" index="0" speed="13.89" length="21.47" shape="50.77,-3.94 72.24,-4.06"/>
    </edge>
    <edge id=":Junc1_5" function="internal">
        <lane id=":Junc1_5_0" index="0" speed="9.27" length="19.32" shape="50.75,-0.74 55.98,0.04 59.72,2.30 61.95,6.06 62.69,11.29"/>
    </edge>
    <edge id=":Junc1_6" function="internal">
        <lane id=":Junc1_6_0" index="0" speed="13.89" length="20.93" shape="56.29,11.28 57.03,-9.64"/>
    </edge>
    <edge id=":Junc1_7" function="internal">
        <lane id=":Junc1_7_0" index="0" speed="9.43" length="20.06" shape="59.49,11.29 60.30,5.99 62.69,2.20 66.67,-0.09 72.25,-0.86"/>
    </edge>
    <edge id=":Junc2_0" function="internal">
        <lane id=":Junc2_0_0" index="0" speed="13.89" length="20.85" shape="165.60,10.89 166.66,-9.94"/>
    </edge>
    <edge id=":Junc2_1" function="internal">
        <lane id=":Junc2_1_0" index="0" speed="9.47" length="20.24" shape="168.80,10.89 169.62,5.63 172.07,1.88 176.15,-0.38 181.87,-1.15"/>
    </edge>
    <edge id=":Junc2_2" function="internal">
        <lane id=":Junc2_2_0" index="0" speed="13.89" length="21.89" shape="181.89,5.25 160.00,5.30"/>
    </edge>
    <edge id=":Junc2_3" function="internal">
        <lane id=":Junc2_3_0" index="0" speed="9.25" length="19.37" shape="181.88,2.05 176.62,1.31 172.86,-0.93 170.61,-4.68 169.86,-9.94"/>
    </edge>
    <edge id=":Junc2_4" function="internal">
        <lane id=":Junc2_4_0" index="0" speed="13.89" length="20.85" shape="176.26,-9.94 175.20,10.89"/>
    </edge>
    <edge id=":Junc2_5" function="internal">
        <lane id=":Junc2_5_0" index="0" speed="9.47" length="20.24" shape="173.06,-9.94 172.24,-4.69 169.79,-0.93 165.71,1.33 159.99,2.10"/>
    </edge>
    <edge id=":Junc2_6" function="internal">
        <lane id=":Junc2_6_0" index="0" speed="13.89" length="21.89" shape="159.97,-4.30 181.86,-4.35"/>
    </edge>
    <edge id=":Junc2_7" function="internal">
        <lane id=":Junc2_7_0" index="0" speed="9.25" length="19.37" shape="159.98,-1.10 165.24,-0.36 168.99,1.88 171.25,5.63 172.00,10.89"/>
    </edge>
    <edge id=":Junc3_0" function="internal">
        <lane id=":Junc3_0_0" index="0" speed="13.89" length="20.98" shape="-10.65,100.46 -31.60,101.51"/>
    </edge>
    <edge id=":Junc3_1" function="internal">
        <lane id=":Junc3_1_0" index="0" speed="9.26" length="19.34" shape="-10.63,97.26 -15.87,96.47 -19.60,94.20 -21.83,90.44 -22.55,85.19"/>
    </edge>
    <edge id=":Junc3_2" function="internal">
        <lane id=":Junc3_2_0" index="0" speed="13.89" length="22.07" shape="-16.15,85.22 -16.47,107.29"/>
    </edge>
    <edge id=":Junc3_3" function="internal">
        <lane id=":Junc3_3_0" index="0" speed="9.52" length="20.42" shape="-19.35,85.21 -20.14,90.94 -22.45,95.03 -26.27,97.49 -31.60,98.31"/>
    </edge>
    <edge id=":Junc3_4" function="internal">
        <lane id=":Junc3_4_0" index="0" speed="13.89" length="21.04" shape="-31.60,91.91 -10.59,90.86"/>
    </edge>
    <edge id=":Junc3_5" function="internal">
        <lane id=":Junc3_5_0" index="0" speed="9.23" length="19.48" shape="-31.60,95.11 -26.31,95.87 -22.55,98.14 -20.34,101.93 -19.67,107.24"/>
    </edge>
    <edge id=":Junc3_6" function="internal">
        <lane id=":Junc3_6_0" index="0" speed="13.89" length="21.97" shape="-26.07,107.14 -25.75,85.17"/>
    </edge>
    <edge id=":Junc3_7" function="internal">
        <lane id=":Junc3_7_0" index="0" speed="9.53" length="20.43" shape="-22.87,107.19 -22.02,101.41 -19.69,97.30 -15.89,94.85 -10.61,94.06"/>
    </edge>
    <edge id=":Junc4_0" function="internal">
        <lane id=":Junc4_0_0" index="0" speed="13.89" length="22.53" shape="73.02,100.45 50.50,100.88"/>
    </edge>
    <edge id=":Junc4_1" function="internal">
        <lane id=":Junc4_1_0" index="0" speed="9.57" length="20.71" shape="73.03,97.25 67.05,96.48 62.78,94.22 60.23,90.46 59.38,85.22"/>
    </edge>
    <edge id=":Junc4_2" function="internal">
        <lane id=":Junc4_2_0" index="0" speed="13.89" length="21.40" shape="65.78,85.23 67.40,106.56"/>
    </edge>
    <edge id=":Junc4_3" function="internal">
        <lane id=":Junc4_3_0" index="0" speed="9.34" length="19.80" shape="62.58,85.22 61.82,90.71 59.56,94.61 55.79,96.94 50.52,97.68"/>
    </edge>
    <edge id=":Junc4_4" function="internal">
        <lane id=":Junc4_4_0" index="0" speed="13.89" length="22.49" shape="50.56,91.28 73.05,90.85"/>
    </edge>
    <edge id=":Junc4_5" function="internal">
        <lane id=":Junc4_5_0" index="0" speed="9.58" length="20.74" shape="50.54,94.48 56.53,95.27 60.81,97.55 63.36,101.31 64.20,106.55"/>
    </edge>
    <edge id=":Junc4_6" function="internal">
        <lane id=":Junc4_6_0" index="0" speed="13.89" length="21.38" shape="57.80,106.53 56.18,85.21"/>
    </edge>
    <edge id=":Junc4_7" function="internal">
        <lane id=":Junc4_7_0" index="0" speed="9.36" length="19.78" shape="61.00,106.54 61.77,101.06 64.03,97.15 67.79,94.81 73.04,94.05"/>
    </edge>
    <edge id=":Junc5_0" function="internal">
        <lane id=":Junc5_0_0" index="0" speed="13.89" length="24.12" shape="180.69,100.02 156.58,100.73"/>
    </edge>
    <edge id=":Junc5_1" function="internal">
        <lane id=":Junc5_1_0" index="0" speed="9.27" length="19.28" shape="180.72,96.82 175.51,96.03 171.78,93.76 169.55,90.01 168.80,84.78"/>
    </edge>
    <edge id=":Junc5_2" function="internal">
        <lane id=":Junc5_2_0" index="0" speed="13.89" length="22.05" shape="175.20,84.78 174.68,90.99 173.51,95.64 172.32,100.29 171.72,106.49"/>
    </edge>
    <edge id=":Junc5_3" function="internal">
        <lane id=":Junc5_3_0" index="0" speed="9.99" length="22.76" shape="172.00,84.78 171.04,90.38 168.15,94.37 163.33,96.75 156.59,97.53"/>
    </edge>
    <edge id=":Junc5_4" function="internal">
        <lane id=":Junc5_4_0" index="0" speed="13.89" length="24.18" shape="156.62,91.13 180.78,90.42"/>
    </edge>
    <edge id=":Junc5_5" function="internal">
        <lane id=":Junc5_5_0" index="0" speed="9.24" length="19.43" shape="156.60,94.33 161.88,95.10 165.63,97.38 167.84,101.16 168.52,106.45"/>
    </edge>
    <edge id=":Junc5_6" function="internal">
        <lane id=":Junc5_6_0" index="0" speed="13.89" length="21.93" shape="162.12,106.36 162.72,100.18 163.91,95.57 165.08,90.97 165.60,84.78"/>
    </edge>
    <edge id=":Junc5_7" function="internal">
        <lane id=":Junc5_7_0" index="0" speed="10.02" length="22.78" shape="165.32,106.41 166.35,100.76 169.27,96.74 174.07,94.37 180.75,93.62"/>
    </edge>
    <edge id=":Junc6_0" function="internal">
        <lane id=":Junc6_0_0" index="0" speed="13.89" length="23.85" shape="-12.14,197.17 -35.98,196.32"/>
    </edge>
    <edge id=":Junc6_1" function="internal">
        <lane id=":Junc6_1_0" index="0" speed="9.33" length="19.97" shape="-12.15,193.97 -17.45,193.19 -21.21,190.81 -23.43,186.84 -24.09,181.26"/>
    </edge>
    <edge id=":Junc6_2" function="internal">
        <lane id=":Junc6_2_0" index="0" speed="13.89" length="21.69" shape="-17.70,181.37 -18.24,187.53 -19.29,192.07 -20.33,196.62 -20.84,202.77"/>
    </edge>
    <edge id=":Junc6_3" function="internal">
        <lane id=":Junc6_3_0" index="0" speed="9.80" length="21.70" shape="-20.90,181.32 -21.91,186.53 -24.76,190.24 -29.44,192.43 -35.95,193.12"/>
    </edge>
    <edge id=":Junc6_4" function="internal">
        <lane id=":Junc6_4_0" index="0" speed="13.89" length="23.73" shape="-35.88,186.72 -12.17,187.57"/>
    </edge>
    <edge id=":Junc6_5" function="internal">
        <lane id=":Junc6_5_0" index="0" speed="9.39" length="19.93" shape="-35.91,189.92 -30.67,190.76 -26.95,193.18 -24.73,197.18 -24.04,202.74"/>
    </edge>
    <edge id=":Junc6_6" function="internal">
        <lane id=":Junc6_6_0" index="0" speed="13.89" length="21.75" shape="-30.44,202.68 -29.93,196.51 -28.89,191.95 -27.84,187.38 -27.29,181.21"/>
    </edge>
    <edge id=":Junc6_7" function="internal">
        <lane id=":Junc6_7_0" index="0" speed="9.84" length="21.79" shape="-27.24,202.71 -26.25,197.50 -23.41,193.78 -18.71,191.53 -12.16,190.77"/>
    </edge>
    <edge id=":Junc7_0" function="internal">
        <lane id=":Junc7_0_0" index="0" speed="13.89" length="22.60" shape="74.53,196.14 51.95,196.98"/>
    </edge>
    <edge id=":Junc7_1" function="internal">
        <lane id=":Junc7_1_0" index="0" speed="9.60" length="20.87" shape="74.55,192.94 68.49,192.16 64.17,189.89 61.58,186.13 60.74,180.88"/>
    </edge>
    <edge id=":Junc7_2" function="internal">
        <lane id=":Junc7_2_0" index="0" speed="13.89" length="21.76" shape="67.14,180.90 68.91,202.59"/>
    </edge>
    <edge id=":Junc7_3" function="internal">
        <lane id=":Junc7_3_0" index="0" speed="9.44" length="20.04" shape="63.94,180.89 63.17,186.52 60.91,190.54 57.17,192.96 51.94,193.78"/>
    </edge>
    <edge id=":Junc7_4" function="internal">
        <lane id=":Junc7_4_0" index="0" speed="13.89" length="22.67" shape="51.92,187.38 74.58,186.54"/>
    </edge>
    <edge id=":Junc7_5" function="internal">
        <lane id=":Junc7_5_0" index="0" speed="9.57" length="20.83" shape="51.93,190.58 57.97,191.32 62.28,193.56 64.86,197.32 65.71,202.58"/>
    </edge>
    <edge id=":Junc7_6" function="internal">
        <lane id=":Junc7_6_0" index="0" speed="13.89" length="21.77" shape="59.31,202.57 57.54,180.87"/>
    </edge>
    <edge id=":Junc7_7" function="internal">
        <lane id=":Junc7_7_0" index="0" speed="9.41" length="20.08" shape="62.51,202.58 63.28,196.94 65.54,192.92 69.30,190.52 74.56,189.74"/>
    </edge>
    <edge id=":Junc8_0" function="internal">
        <lane id=":Junc8_0_0" index="0" speed="13.89" length="21.72" shape="160.29,203.08 161.10,181.37"/>
    </edge>
    <edge id=":Junc8_1" function="internal">
        <lane id=":Junc8_1_0" index="0" speed="9.35" length="20.03" shape="163.49,203.05 164.25,197.75 166.61,193.97 170.60,191.73 176.20,191.02"/>
    </edge>
    <edge id=":Junc8_2" function="internal">
        <lane id=":Junc8_2_0" index="0" speed="13.89" length="21.51" shape="176.14,197.42 154.66,196.53"/>
    </edge>
    <edge id=":Junc8_3" function="internal">
        <lane id=":Junc8_3_0" index="0" speed="9.37" length="19.93" shape="176.17,194.22 170.91,193.38 167.18,190.97 164.98,186.98 164.30,181.42"/>
    </edge>
    <edge id=":Junc8_4" function="internal">
        <lane id=":Junc8_4_0" index="0" speed="13.89" length="21.50" shape="170.70,181.51 169.89,202.99"/>
    </edge>
    <edge id=":Junc8_5" function="internal">
        <lane id=":Junc8_5_0" index="0" speed="9.41" length="19.89" shape="167.50,181.46 166.64,186.68 164.21,190.39 160.22,192.61 154.67,193.33"/>
    </edge>
    <edge id=":Junc8_6" function="internal">
        <lane id=":Junc8_6_0" index="0" speed="13.89" length="21.54" shape="154.70,186.93 176.22,187.82"/>
    </edge>
    <edge id=":Junc8_7" function="internal">
        <lane id=":Junc8_7_0" index="0" speed="9.46" length="20.02" shape="154.69,190.13 159.90,190.96 163.63,193.38 165.90,197.40 166.69,203.02"/>
    </edge>
    <edge id=":clusterJ11_J66_J67_0" function="internal">
        <lane id=":clusterJ11_J66_J67_0_0" index="0" speed="6.67" length="9.51" shape="56.96,-86.17 56.61,-88.88 55.56,-90.82 53.82,-91.98 51.37,-92.38"/>
    </edge>
    <edge id=":clusterJ11_J66_J67_1" function="internal">
        <lane id=":clusterJ11_J66_J67_1_0" index="0" speed="8.75" length="16.73" shape="60.16,-86.17 60.90,-89.95 63.12,-92.71 66.83,-94.45 72.01,-95.17"/>
    </edge>
    <edge id=":clusterJ11_J66_J67_2" function="internal">
        <lane id=":clusterJ11_J66_J67_2_0" index="0" speed="6.61" length="9.10" shape="72.13,-91.97 69.69,-91.54 67.95,-90.43 66.91,-88.64 66.56,-86.17"/>
    </edge>
    <edge id=":clusterJ11_J66_J67_3" function="internal">
        <lane id=":clusterJ11_J66_J67_3_0" index="0" speed="13.89" length="20.76" shape="72.13,-91.97 51.37,-92.38"/>
    </edge>
    <edge id=":clusterJ11_J66_J67_4" function="internal">
        <lane id=":clusterJ11_J66_J67_4_0" index="0" speed="13.89" length="20.64" shape="51.38,-95.58 72.01,-95.17"/>
    </edge>
    <edge id=":clusterJ11_J66_J67_5" function="internal">
        <lane id=":clusterJ11_J66_J67_5_0" index="0" speed="8.79" length="17.28" shape="51.38,-95.58 56.62,-94.98 60.36,-93.21 62.61,-90.27 63.36,-86.17"/>
    </edge>
    <edge id=":clusterJ18_J68_J69_0" function="internal">
        <lane id=":clusterJ18_J68_J69_0_0" index="0" speed="6.43" length="9.03" shape="166.66,-89.59 166.31,-92.05 165.25,-93.78 163.48,-94.78 161.01,-95.05"/>
    </edge>
    <edge id=":clusterJ18_J68_J69_1" function="internal">
        <lane id=":clusterJ18_J68_J69_1_0" index="0" speed="8.83" length="17.61" shape="169.86,-89.59 170.61,-93.87 172.87,-96.92 176.63,-98.74 181.89,-99.32"/>
    </edge>
    <edge id=":clusterJ18_J68_J69_2" function="internal">
        <lane id=":clusterJ18_J68_J69_2_0" index="0" speed="6.74" length="9.81" shape="181.87,-96.12 179.42,-95.72 177.66,-94.50 176.61,-92.46 176.26,-89.59"/>
    </edge>
    <edge id=":clusterJ18_J68_J69_3" function="internal">
        <lane id=":clusterJ18_J68_J69_3_0" index="0" speed="13.89" length="20.89" shape="181.87,-96.12 161.01,-95.05"/>
    </edge>
    <edge id=":clusterJ18_J68_J69_4" function="internal">
        <lane id=":clusterJ18_J68_J69_4_0" index="0" speed="13.89" length="21.02" shape="160.90,-98.25 181.89,-99.32"/>
    </edge>
    <edge id=":clusterJ18_J68_J69_5" function="internal">
        <lane id=":clusterJ18_J68_J69_5_0" index="0" speed="8.61" length="17.05" shape="160.90,-98.25 166.22,-97.87 170.02,-96.30 172.30,-93.54 173.06,-89.59"/>
    </edge>
    <edge id=":clusterJ20_J72_J73_0" function="internal">
        <lane id=":clusterJ20_J72_J73_0_0" index="0" speed="13.89" length="20.94" shape="278.81,-10.19 280.27,10.70"/>
    </edge>
    <edge id=":clusterJ20_J72_J73_1" function="internal">
        <lane id=":clusterJ20_J72_J73_1_0" index="0" speed="8.67" length="16.87" shape="278.81,-10.19 278.30,-4.93 276.66,-1.17 273.92,1.09 270.06,1.85"/>
    </edge>
    <edge id=":clusterJ20_J72_J73_2" function="internal">
        <lane id=":clusterJ20_J72_J73_2_0" index="0" speed="6.50" length="9.03" shape="270.04,-4.55 272.49,-4.90 274.24,-5.96 275.28,-7.71 275.61,-10.17"/>
    </edge>
    <edge id=":clusterJ20_J72_J73_3" function="internal">
        <lane id=":clusterJ20_J72_J73_3_0" index="0" speed="8.91" length="18.05" shape="270.05,-1.35 274.58,-0.60 277.79,1.65 279.69,5.42 280.27,10.70"/>
    </edge>
    <edge id=":clusterJ20_J72_J73_4" function="internal">
        <lane id=":clusterJ20_J72_J73_4_0" index="0" speed="6.85" length="10.23" shape="277.07,10.66 276.66,8.20 275.36,6.45 273.16,5.40 270.06,5.05"/>
    </edge>
    <edge id=":clusterJ20_J72_J73_5" function="internal">
        <lane id=":clusterJ20_J72_J73_5_0" index="0" speed="13.89" length="20.88" shape="277.07,10.66 275.61,-10.17"/>
    </edge>
    <edge id=":clusterJ21_J58_J59_0" function="internal">
        <lane id=":clusterJ21_J58_J59_0_0" index="0" speed="7.28" length="11.31" shape="-117.07,101.51 -120.69,101.86 -123.30,102.90 -124.90,104.63 -125.49,107.06"/>
    </edge>
    <edge id=":clusterJ21_J58_J59_1" function="internal">
        <lane id=":clusterJ21_J58_J59_1_0" index="0" speed="9.07" length="18.88" shape="-117.07,98.31 -122.06,97.55 -125.59,95.28 -127.64,91.50 -128.23,86.20"/>
    </edge>
    <edge id=":clusterJ21_J58_J59_2" function="internal">
        <lane id=":clusterJ21_J58_J59_2_0" index="0" speed="7.08" length="11.08" shape="-125.03,86.27 -124.59,88.74 -123.11,90.50 -120.60,91.56 -117.07,91.91"/>
    </edge>
    <edge id=":clusterJ21_J58_J59_3" function="internal">
        <lane id=":clusterJ21_J58_J59_3_0" index="0" speed="13.89" length="20.79" shape="-125.03,86.27 -125.49,107.06"/>
    </edge>
    <edge id=":clusterJ21_J58_J59_4" function="internal">
        <lane id=":clusterJ21_J58_J59_4_0" index="0" speed="13.89" length="20.78" shape="-128.68,106.97 -128.23,86.20"/>
    </edge>
    <edge id=":clusterJ21_J58_J59_5" function="internal">
        <lane id=":clusterJ21_J58_J59_5_0" index="0" speed="9.23" length="18.81" shape="-128.68,106.97 -127.83,101.78 -125.61,98.07 -122.02,95.85 -117.07,95.11"/>
    </edge>
    <edge id=":clusterJ35_J74_J75_0" function="internal">
        <lane id=":clusterJ35_J74_J75_0_0" index="0" speed="7.66" length="12.64" shape="278.00,106.52 277.34,104.09 275.47,102.34 272.39,101.27 268.10,100.88"/>
    </edge>
    <edge id=":clusterJ35_J74_J75_1" function="internal">
        <lane id=":clusterJ35_J74_J75_1_0" index="0" speed="13.89" length="20.83" shape="278.00,106.52 276.08,85.78"/>
    </edge>
    <edge id=":clusterJ35_J74_J75_2" function="internal">
        <lane id=":clusterJ35_J74_J75_2_0" index="0" speed="13.89" length="20.74" shape="279.28,85.82 279.54,90.45 280.18,96.14 280.85,101.83 281.20,106.46"/>
    </edge>
    <edge id=":clusterJ35_J74_J75_3" function="internal">
        <lane id=":clusterJ35_J74_J75_3_0" index="0" speed="9.08" length="18.54" shape="279.28,85.82 278.53,91.05 276.42,94.77 272.95,96.98 268.13,97.68"/>
    </edge>
    <edge id=":clusterJ35_J74_J75_4" function="internal">
        <lane id=":clusterJ35_J74_J75_4_0" index="0" speed="7.08" length="10.87" shape="268.20,91.28 271.62,90.96 274.08,89.94 275.56,88.21 276.08,85.78"/>
    </edge>
    <edge id=":clusterJ35_J74_J75_5" function="internal">
        <lane id=":clusterJ35_J74_J75_5_0" index="0" speed="9.51" length="20.05" shape="268.17,94.48 273.79,95.28 277.83,97.54 280.30,101.27 281.20,106.46"/>
    </edge>
    <edge id=":clusterJ36_J56_J89_0" function="internal">
        <lane id=":clusterJ36_J56_J89_0_0" index="0" speed="13.89" length="20.97" shape="-15.98,289.10 -20.65,288.82 -26.42,288.16 -32.19,287.49 -36.86,287.16"/>
    </edge>
    <edge id=":clusterJ36_J56_J89_1" function="internal">
        <lane id=":clusterJ36_J56_J89_1_0" index="0" speed="8.97" length="18.33" shape="-15.98,289.10 -21.26,288.47 -25.02,286.48 -27.26,283.15 -27.97,278.45"/>
    </edge>
    <edge id=":clusterJ36_J56_J89_2" function="internal">
        <lane id=":clusterJ36_J56_J89_2_0" index="0" speed="6.93" length="10.52" shape="-21.57,278.51 -21.25,281.76 -20.21,284.07 -18.47,285.45 -16.01,285.90"/>
    </edge>
    <edge id=":clusterJ36_J56_J89_3" function="internal">
        <lane id=":clusterJ36_J56_J89_3_0" index="0" speed="8.67" length="16.86" shape="-24.77,278.48 -25.55,282.33 -27.83,285.06 -31.60,286.67 -36.86,287.16"/>
    </edge>
    <edge id=":clusterJ36_J56_J89_4" function="internal">
        <lane id=":clusterJ36_J56_J89_4_0" index="0" speed="6.50" length="9.03" shape="-36.82,283.96 -34.37,283.64 -32.61,282.61 -31.54,280.87 -31.17,278.42"/>
    </edge>
    <edge id=":clusterJ36_J56_J89_5" function="internal">
        <lane id=":clusterJ36_J56_J89_5_0" index="0" speed="13.89" length="20.90" shape="-36.82,283.96 -16.01,285.90"/>
    </edge>
    <edge id=":clusterJ38_J53_J57_0" function="internal">
        <lane id=":clusterJ38_J53_J57_0_0" index="0" speed="6.51" length="9.03" shape="-121.22,195.50 -123.67,195.83 -125.44,196.86 -126.51,198.60 -126.89,201.04"/>
    </edge>
    <edge id=":clusterJ38_J53_J57_1" function="internal">
        <lane id=":clusterJ38_J53_J57_1_0" index="0" speed="8.82" length="17.72" shape="-121.19,192.30 -125.53,191.50 -128.57,189.21 -130.33,185.41 -130.80,180.11"/>
    </edge>
    <edge id=":clusterJ38_J53_J57_2" function="internal">
        <lane id=":clusterJ38_J53_J57_2_0" index="0" speed="6.72" length="9.85" shape="-127.60,180.21 -127.26,182.67 -126.07,184.44 -124.02,185.52 -121.13,185.90"/>
    </edge>
    <edge id=":clusterJ38_J53_J57_3" function="internal">
        <lane id=":clusterJ38_J53_J57_3_0" index="0" speed="13.89" length="20.85" shape="-127.60,180.21 -126.89,201.04"/>
    </edge>
    <edge id=":clusterJ38_J53_J57_4" function="internal">
        <lane id=":clusterJ38_J53_J57_4_0" index="0" speed="13.89" length="20.90" shape="-130.09,201.00 -130.80,180.11"/>
    </edge>
    <edge id=":clusterJ38_J53_J57_5" function="internal">
        <lane id=":clusterJ38_J53_J57_5_0" index="0" speed="8.68" length="16.83" shape="-130.09,201.00 -129.47,195.76 -127.78,192.03 -125.01,189.81 -121.16,189.10"/>
    </edge>
    <edge id=":clusterJ42_J87_J88_0" function="internal">
        <lane id=":clusterJ42_J87_J88_0_0" index="0" speed="13.89" length="20.67" shape="74.21,287.00 69.59,287.20 63.91,287.73 58.23,288.28 53.60,288.55"/>
    </edge>
    <edge id=":clusterJ42_J87_J88_1" function="internal">
        <lane id=":clusterJ42_J87_J88_1_0" index="0" speed="8.68" length="16.71" shape="74.21,287.00 69.01,286.38 65.30,284.70 63.07,281.96 62.34,278.16"/>
    </edge>
    <edge id=":clusterJ42_J87_J88_2" function="internal">
        <lane id=":clusterJ42_J87_J88_2_0" index="0" speed="6.51" length="8.96" shape="68.74,278.17 69.08,280.60 70.11,282.35 71.84,283.41 74.26,283.80"/>
    </edge>
    <edge id=":clusterJ42_J87_J88_3" function="internal">
        <lane id=":clusterJ42_J87_J88_3_0" index="0" speed="8.97" length="17.97" shape="65.54,278.17 64.78,282.67 62.54,285.91 58.82,287.86 53.60,288.55"/>
    </edge>
    <edge id=":clusterJ42_J87_J88_4" function="internal">
        <lane id=":clusterJ42_J87_J88_4_0" index="0" speed="6.93" length="10.30" shape="53.58,285.35 56.00,284.88 57.74,283.53 58.78,281.28 59.14,278.15"/>
    </edge>
    <edge id=":clusterJ42_J87_J88_5" function="internal">
        <lane id=":clusterJ42_J87_J88_5_0" index="0" speed="13.89" length="20.74" shape="53.58,285.35 74.26,283.80"/>
    </edge>
    <edge id=":clusterJ47_J84_J86_0" function="internal">
        <lane id=":clusterJ47_J84_J86_0_0" index="0" speed="13.89" length="20.90" shape="176.19,289.78 155.35,288.23"/>
    </edge>
    <edge id=":clusterJ47_J84_J86_1" function="internal">
        <lane id=":clusterJ47_J84_J86_1_0" index="0" speed="9.00" length="17.96" shape="176.19,289.78 170.97,289.09 167.23,287.14 164.97,283.93 164.18,279.45"/>
    </edge>
    <edge id=":clusterJ47_J84_J86_2" function="internal">
        <lane id=":clusterJ47_J84_J86_2_0" index="0" speed="6.96" length="10.33" shape="170.58,279.39 170.96,282.52 172.02,284.76 173.78,286.11 176.22,286.58"/>
    </edge>
    <edge id=":clusterJ47_J84_J86_3" function="internal">
        <lane id=":clusterJ47_J84_J86_3_0" index="0" speed="8.63" length="16.99" shape="167.38,279.42 166.66,283.34 164.41,286.12 160.64,287.75 155.35,288.23"/>
    </edge>
    <edge id=":clusterJ47_J84_J86_4" function="internal">
        <lane id=":clusterJ47_J84_J86_4_0" index="0" speed="6.45" length="9.03" shape="155.40,285.03 157.86,284.71 159.61,283.68 160.65,281.94 160.98,279.48"/>
    </edge>
    <edge id=":clusterJ47_J84_J86_5" function="internal">
        <lane id=":clusterJ47_J84_J86_5_0" index="0" speed="13.89" length="20.88" shape="155.40,285.03 176.22,286.58"/>
    </edge>
    <edge id=":clusterJ49_J76_J77_0" function="internal">
        <lane id=":clusterJ49_J76_J77_0_0" index="0" speed="7.06" length="10.76" shape="278.96,205.94 278.61,202.58 277.56,200.18 275.82,198.73 273.37,198.23"/>
    </edge>
    <edge id=":clusterJ49_J76_J77_1" function="internal">
        <lane id=":clusterJ49_J76_J77_1_0" index="0" speed="13.89" length="22.91" shape="278.96,205.94 279.38,183.04"/>
    </edge>
    <edge id=":clusterJ49_J76_J77_2" function="internal">
        <lane id=":clusterJ49_J76_J77_2_0" index="0" speed="13.89" length="22.96" shape="282.58,182.98 282.16,205.94"/>
    </edge>
    <edge id=":clusterJ49_J76_J77_3" function="internal">
        <lane id=":clusterJ49_J76_J77_3_0" index="0" speed="8.70" length="17.29" shape="282.58,182.98 282.09,188.28 280.40,192.06 277.50,194.31 273.40,195.03"/>
    </edge>
    <edge id=":clusterJ49_J76_J77_4" function="internal">
        <lane id=":clusterJ49_J76_J77_4_0" index="0" speed="6.55" length="9.35" shape="273.45,188.63 276.09,188.30 277.95,187.26 279.05,185.50 279.38,183.04"/>
    </edge>
    <edge id=":clusterJ49_J76_J77_5" function="internal">
        <lane id=":clusterJ49_J76_J77_5_0" index="0" speed="9.11" length="18.60" shape="273.43,191.83 277.25,192.74 279.98,195.39 281.61,199.79 282.16,205.94"/>
    </edge>
    <edge id=":clusterJ4_J64_J65_0" function="internal">
        <lane id=":clusterJ4_J64_J65_0_0" index="0" speed="6.51" length="9.03" shape="-12.01,-92.53 -14.46,-92.19 -16.21,-91.14 -17.26,-89.40 -17.62,-86.95"/>
    </edge>
    <edge id=":clusterJ4_J64_J65_1" function="internal">
        <lane id=":clusterJ4_J64_J65_1_0" index="0" speed="13.89" length="20.79" shape="-12.01,-92.53 -32.78,-93.48"/>
    </edge>
    <edge id=":clusterJ4_J64_J65_2" function="internal">
        <lane id=":clusterJ4_J64_J65_2_0" index="0" speed="13.89" length="20.74" shape="-32.72,-96.68 -12.00,-95.73"/>
    </edge>
    <edge id=":clusterJ4_J64_J65_3" function="internal">
        <lane id=":clusterJ4_J64_J65_3_0" index="0" speed="8.85" length="17.40" shape="-32.72,-96.68 -27.50,-95.99 -23.78,-94.15 -21.55,-91.13 -20.82,-86.96"/>
    </edge>
    <edge id=":clusterJ4_J64_J65_4" function="internal">
        <lane id=":clusterJ4_J64_J65_4_0" index="0" speed="6.75" length="9.71" shape="-27.22,-86.98 -27.56,-89.79 -28.60,-91.80 -30.34,-93.04 -32.78,-93.48"/>
    </edge>
    <edge id=":clusterJ4_J64_J65_5" function="internal">
        <lane id=":clusterJ4_J64_J65_5_0" index="0" speed="8.67" length="16.84" shape="-24.02,-86.97 -23.26,-90.81 -21.00,-93.56 -17.25,-95.20 -12.00,-95.73"/>
    </edge>
    <edge id=":clusterJ54_J55_0" function="internal">
        <lane id=":clusterJ54_J55_0_0" index="0" speed="7.09" length="10.93" shape="-126.36,286.11 -128.46,285.55 -129.94,283.93 -130.81,281.25 -131.06,277.51"/>
    </edge>
    <edge id=":clusterJ54_J55_1" function="internal">