<?xml version="1.0" encoding="UTF-8"?>

<!-- generated on 2025-04-15 13:54:24 by Eclipse SUMO netedit Version 1.22.0
<neteditConfiguration xmlns:xsi="http://www.w3.org/2001/XMLSchema-instance" xsi:noNamespaceSchemaLocation="http://sumo.dlr.de/xsd/neteditConfiguration.xsd">

    <input>
        <sumocfg-file value="C:\Users\bobbi\Documents\YEAR 3\sumo3\sumo3comp.sumocfg"/>
        <additional-files value=""/>
        <route-files value="C:\Users\bobbi\Documents\YEAR 3\sumo3\sumo3comp.rou.xml"/>
        <sumo-net-file value="C:\Users\bobbi\Documents\YEAR 3\sumo3\sumo3comp.net.xml"/>
    </input>

    <output>
        <output-file value="C:\Users\bobbi\Documents\YEAR 3\sumo3\sumo3comp.net.xml"/>
    </output>

    <processing>
        <geometry.min-radius.fix.railways value="false"/>
        <geometry.max-grade.fix value="false"/>
        <offset.disable-normalization value="true"/>
        <lefthand value="0"/>
    </processing>

    <junctions>
        <no-turnarounds value="true"/>
        <junctions.corner-detail value="5"/>
        <junctions.limit-turn-speed value="5.50"/>
        <rectangular-lane-cut value="0"/>
    </junctions>

    <pedestrian>
        <walkingareas value="0"/>
    </pedestrian>

</neteditConfiguration>
-->

<net version="1.20" junctionCornerDetail="5" limitTurnSpeed="5.50" xmlns:xsi="http://www.w3.org/2001/XMLSchema-instance" xsi:noNamespaceSchemaLocation="http://sumo.dlr.de/xsd/net_file.xsd">

    <location netOffset="0.00,0.00" convBoundary="-158.72,-122.28,219.71,195.99" origBoundary="-10000000000.00,-10000000000.00,10000000000.00,10000000000.00" projParameter="!"/>

    <edge id=":Junc0_0" function="internal">
        <lane id=":Junc0_0_0" index="0" speed="13.89" length="24.73" shape="-10.91,21.18 -16.21,15.94 -21.32,11.22 -26.04,7.69 -30.13,6.00"/>
    </edge>
    <edge id=":Junc0_1" function="internal">
        <lane id=":Junc0_1_0" index="0" speed="8.23" length="20.44" shape="-8.65,18.91 -12.60,13.90 -13.53,9.68 -11.44,6.27 -6.34,3.66"/>
    </edge>
    <edge id=":Junc0_2" function="internal">
        <lane id=":Junc0_2_0" index="0" speed="13.89" length="26.46" shape="-4.31,9.73 -11.65,10.58 -18.92,9.32 -25.34,7.33 -30.13,6.00"/>
    </edge>
    <edge id=":Junc0_3" function="internal">
        <lane id=":Junc0_3_0" index="0" speed="8.72" length="21.81" shape="-5.32,6.69 -11.26,7.70 -15.40,6.16 -17.74,2.07 -18.29,-4.56"/>
    </edge>
    <edge id=":Junc0_4" function="internal">
        <lane id=":Junc0_4_0" index="0" speed="6.60" length="11.92" shape="-11.90,-4.28 -11.72,-0.06 -10.73,2.67 -8.93,3.91 -6.34,3.66"/>
    </edge>
    <edge id=":Junc0_5" function="internal">
        <lane id=":Junc0_5_0" index="0" speed="13.89" length="23.12" shape="-15.10,-4.42 -16.10,2.58 -18.15,8.52 -20.76,13.26 -23.44,16.69"/>
    </edge>
    <edge id=":Junc0_6" function="internal">
        <lane id=":Junc0_6_0" index="0" speed="7.50" length="13.25" shape="-29.22,-0.33 -24.54,-0.02 -21.15,-0.62 -19.07,-2.14 -18.29,-4.56"/>
    </edge>
    <edge id=":Junc0_7" function="internal">
        <lane id=":Junc0_7_0" index="0" speed="13.89" length="27.43" shape="-29.68,2.84 -22.36,5.10 -15.66,8.95 -10.14,13.20 -6.40,16.64"/>
    </edge>
    <edge id=":Junc0_8" function="internal">
        <lane id=":Junc0_8_0" index="0" speed="13.89" length="23.81" shape="-28.10,12.31 -22.48,8.10 -16.43,5.84 -10.77,4.65 -6.34,3.66"/>
    </edge>
    <edge id=":Junc0_9" function="internal">
        <lane id=":Junc0_9_0" index="0" speed="9.80" length="22.25" shape="-25.77,14.50 -21.45,11.32 -16.77,10.62 -11.76,12.39 -6.40,16.64"/>
    </edge>
    <edge id=":Junc1_0" function="internal">
        <lane id=":Junc1_0_0" index="0" speed="6.85" length="9.88" shape="79.67,103.89 76.73,104.23 74.61,105.25 73.30,106.95 72.81,109.33"/>
    </edge>
    <edge id=":Junc1_1" function="internal">
        <lane id=":Junc1_1_0" index="0" speed="13.49" length="16.80" shape="79.67,100.69 74.91,100.24 71.84,98.82 69.20,96.34 65.75,92.70"/>
    </edge>
    <edge id=":Junc1_2" function="internal">
        <lane id=":Junc1_2_0" index="0" speed="12.35" length="14.02" shape="68.00,90.43 70.62,93.02 73.29,95.28 76.23,96.89 79.67,97.49"/>
    </edge>
    <edge id=":Junc1_3" function="internal">
        <lane id=":Junc1_3_0" index="0" speed="12.25" length="14.76" shape="66.42,109.13 66.36,104.15 65.85,100.12 64.90,97.07 63.50,94.97"/>
    </edge>
    <edge id=":Junc1_4" function="internal">
        <lane id=":Junc1_4_0" index="0" speed="8.92" length="17.46" shape="69.62,109.23 70.37,104.10 72.30,100.43 75.40,98.23 79.67,97.49"/>
    </edge>

    <edge id="-E0" from="Junc0" to="J0" priority="-1" shape="-20.52,11.25 -96.48,91.97">
        <lane id="-E0_0" index="0" speed="13.89" length="104.87" shape="-23.44,16.69 -95.31,93.07"/>
    </edge>
    <edge id="-E1" from="Junc0" to="Junc1" priority="-1" shape="-12.32,13.02 71.68,96.33">
        <lane id="-E1_0" index="0" speed="13.89" length="104.79" shape="-6.40,16.64 68.00,90.43"/>
    </edge>
    <edge id="-E10" from="Junc1" to="J1" priority="-1" shape="71.36,104.57 68.62,195.99">
        <lane id="-E10_0" index="0" speed="13.89" length="86.75" shape="72.81,109.33 70.22,196.04"/>
    </edge>
    <edge id="-E2" from="Junc0" to="J4" priority="-1" shape="-9.11,6.27 141.91,-44.20">
        <lane id="-E2_0" index="0" speed="13.89" length="155.77" shape="-6.34,3.66 141.40,-45.72"/>
    </edge>
    <edge id="-E3" from="Junc0" to="J6" priority="-1" shape="-16.99,2.22 -11.52,-122.28">
        <lane id="-E3_0" index="0" speed="13.89" length="117.90" shape="-18.29,-4.56 -13.12,-122.35"/>
    </edge>
    <edge id="-E4" from="Junc0" to="J8" priority="-1" shape="-24.26,5.23 -158.72,-14.05">
        <lane id="-E4_0" index="0" speed="13.89" length="130.14" shape="-30.13,6.00 -158.95,-12.47"/>
    </edge>
    <edge id="-E5" from="Junc1" to="J5" priority="-1" shape="77.16,99.09 219.71,98.98">
        <lane id="-E5_0" index="0" speed="13.89" length="140.05" shape="79.67,97.49 219.71,97.38"/>
    </edge>
    <edge id="E0" from="J0" to="Junc0" priority="-1" shape="-96.48,91.97 -20.52,11.25">
        <lane id="E0_0" index="0" speed="13.89" length="104.87" shape="-99.98,88.68 -28.10,12.31"/>
        <lane id="E0_1" index="1" speed="13.89" length="104.87" shape="-97.65,90.87 -25.77,14.50"/>
    </edge>
    <edge id="E1" from="J1" to="Junc1" priority="-1" shape="68.62,195.99 71.36,104.57">
        <lane id="E1_0" index="0" speed="13.89" length="86.75" shape="63.82,195.85 66.42,109.13"/>
        <lane id="E1_1" index="1" speed="13.89" length="86.75" shape="67.02,195.94 69.62,109.23"/>
    </edge>
    <edge id="E2" from="J4" to="Junc0" priority="-1" shape="141.91,-44.20 -9.11,6.27">
        <lane id="E2_0" index="0" speed="13.89" length="155.77" shape="143.43,-39.65 -4.31,9.73"/>
        <lane id="E2_1" index="1" speed="13.89" length="155.77" shape="142.42,-42.68 -5.32,6.69"/>
    </edge>
    <edge id="E3" from="J6" to="Junc0" priority="-1" shape="-11.52,-122.28 -16.99,2.22">
        <lane id="E3_0" index="0" speed="13.89" length="117.90" shape="-6.72,-122.07 -11.90,-4.28"/>
        <lane id="E3_1" index="1" speed="13.89" length="117.90" shape="-9.92,-122.21 -15.10,-4.42"/>
    </edge>
    <edge id="E4" from="J8" to="Junc0" priority="-1" shape="-158.72,-14.05 -24.26,5.23">
        <lane id="E4_0" index="0" speed="13.89" length="130.14" shape="-158.04,-18.80 -29.22,-0.33"/>
        <lane id="E4_1" index="1" speed="13.89" length="130.14" shape="-158.49,-15.63 -29.68,2.84"/>
    </edge>
    <edge id="EB0" from="Junc1" to="Junc0" priority="-1" shape="71.68,96.33 -12.32,13.02">
        <lane id="EB0_0" index="0" speed="13.89" length="104.79" shape="63.50,94.97 -10.91,21.18"/>
        <lane id="EB0_1" index="1" speed="13.89" length="104.79" shape="65.75,92.70 -8.65,18.91"/>
    </edge>
    <edge id="EB1" from="J5" to="Junc1" priority="-1" shape="219.71,98.98 77.16,99.09">
        <lane id="EB1_0" index="0" speed="13.89" length="140.05" shape="219.72,103.78 79.67,103.89"/>
        <lane id="EB1_1" index="1" speed="13.89" length="140.05" shape="219.72,100.58 79.67,100.69"/>
    </edge>

    <tlLogic id="TLS0" type="static" programID="0" offset="0">
        <phase duration="14" state="GrrrGrGGrr"/>
        <phase duration="3"  state="yrrryryyrr"/>
        <phase duration="1"  state="rrrrrrrrrr"/>
        <phase duration="15" state="GGrrrrGrrr"/>
        <phase duration="3"  state="yyrrrryrrr"/>
        <phase duration="15" state="rrGGGrrrrG"/>
        <phase duration="3"  state="rryyGrrrry"/>
        <phase duration="15" state="rrrrGGGrrr"/>
        <phase duration="3"  state="rrrryyGrrr"/>
        <phase duration="15" state="rrrrrrGrGG"/>
        <phase duration="3"  state="rrrrrrGryy"/>
    </tlLogic>
    <tlLogic id="TLS1" type="static" programID="0" offset="0">
        <phase duration="42" state="GGGGr"/>
        <phase duration="3"  state="GyyGr"/>
        <phase duration="42" state="GrrGG"/>
        <phase duration="3"  state="GrrGy"/>
    </tlLogic>

    <junction id="J0" type="dead_end" x="-96.48" y="91.97" incLanes="-E0_0" intLanes="" shape="-96.48,91.97 -94.15,94.16 -96.48,91.97"/>
    <junction id="J1" type="dead_end" x="68.62" y="195.99" incLanes="-E10_0" intLanes="" shape="68.62,195.99 71.82,196.09 68.62,195.99"/>
    <junction id="J4" type="dead_end" x="141.91" y="-44.20" incLanes="-E2_0" intLanes="" shape="141.91,-44.20 140.90,-47.24 141.91,-44.20"/>
    <junction id="J5" type="dead_end" x="219.71" y="98.98" incLanes="-E5_0" intLanes="" shape="219.71,98.98 219.71,95.78 219.71,98.98"/>
    <junction id="J6" type="dead_end" x="-11.52" y="-122.28" incLanes="-E3_0" intLanes="" shape="-11.52,-122.28 -14.72,-122.42 -11.52,-122.28"/>
    <junction id="J8" type="dead_end" x="-158.72" y="-14.05" incLanes="-E4_0" intLanes="" shape="-158.72,-14.05 -159.17,-10.88 -158.72,-14.05"/>
    <junction id="Junc0" type="traffic_light" x="-16.64" y="7.60" incLanes="EB0_0 EB0_1 E2_0 E2_1 E3_0 E3_1 E4_0 E4_1 E0_0 E0_1" intLanes=":Junc0_0_0 :Junc0_1_0 :Junc0_2_0 :Junc0_3_0 :Junc0_4_0 :Junc0_5_0 :Junc0_6_0 :Junc0_7_0 :Junc0_8_0 :Junc0_9_0" shape="-12.03,22.32 -5.27,15.50 -6.37,13.78 -6.32,13.03 -5.88,12.36 -5.04,11.76 -3.80,11.24 -6.84,2.14 -8.91,2.00 -9.60,1.19 -10.07,-0.12 -10.30,-1.92 -10.30,-4.21 -19.89,-4.63 -20.98,-2.55 -22.26,-1.95 -24.02,-1.65 -26.26,-1.63 -28.99,-1.91 -30.36,7.59 -28.48,8.24 -28.11,8.78 -28.11,9.45 -28.50,10.26 -29.27,11.21 -22.28,17.79 -19.92,17.00 -18.35,17.46 -16.51,18.51 -14.40,20.12">
        <request index="0" response="0100000100" foes="1100100100" cont="0"/>
        <request index="1" response="1110011100" foes="1110011100" cont="0"/>
        <request index="2" response="0000000000" foes="0110100011" cont="0"/>
        <request index="3" response="0001000000" foes="0101100010" cont="0"/>
        <request index="4" response="0100000000" foes="0100000010" cont="0"/>
        <request index="5" response="0010001101" foes="1110001101" cont="0"/>
        <request index="6" response="0000000000" foes="0000001000" cont="0"/>
        <request index="7" response="0000000100" foes="1100101110" cont="0"/>
        <request index="8" response="0010101100" foes="0010111111" cont="0"/>
        <request index="9" response="0010100001" foes="0010100011" cont="0"/>
    </junction>
    <junction id="Junc1" type="traffic_light" x="73.40" y="100.00" incLanes="EB1_0 EB1_1 -E1_0 E1_0 E1_1" intLanes=":Junc1_0_0 :Junc1_1_0 :Junc1_2_0 :Junc1_3_0 :Junc1_4_0" shape="79.67,105.49 79.66,95.89 77.03,95.71 75.15,95.16 73.72,94.24 72.44,92.95 71.01,91.30 69.13,89.29 62.37,96.11 63.87,98.77 64.36,100.72 64.68,103.09 64.83,105.88 64.82,109.09 74.41,109.37 75.05,107.22 75.79,106.46 76.80,105.92 78.10,105.60">
        <request index="0" response="00000" foes="00000" cont="0"/>
        <request index="1" response="00000" foes="10000" cont="0"/>
        <request index="2" response="00000" foes="10000" cont="0"/>
        <request index="3" response="00000" foes="00000" cont="0"/>
        <request index="4" response="00110" foes="00110" cont="0"/>
    </junction>

    <connection from="-E1" to="-E5" fromLane="0" toLane="0" via=":Junc1_2_0" tl="TLS1" linkIndex="2" dir="r" state="O"/>
    <connection from="E0" to="-E2" fromLane="0" toLane="0" via=":Junc0_8_0" tl="TLS0" linkIndex="8" dir="s" state="o"/>
    <connection from="E0" to="-E1" fromLane="1" toLane="0" via=":Junc0_9_0" tl="TLS0" linkIndex="9" dir="l" state="o"/>
    <connection from="E1" to="EB0" fromLane="0" toLane="0" via=":Junc1_3_0" tl="TLS1" linkIndex="3" dir="r" state="O"/>
    <connection from="E1" to="-E5" fromLane="1" toLane="0" via=":Junc1_4_0" tl="TLS1" linkIndex="4" dir="l" state="o"/>
    <connection from="E2" to="-E4" fromLane="0" toLane="0" via=":Junc0_2_0" tl="TLS0" linkIndex="2" dir="s" state="O"/>
    <connection from="E2" to="-E3" fromLane="1" toLane="0" via=":Junc0_3_0" tl="TLS0" linkIndex="3" dir="l" state="o"/>
    <connection from="E3" to="-E2" fromLane="0" toLane="0" via=":Junc0_4_0" tl="TLS0" linkIndex="4" dir="r" state="o"/>
    <connection from="E3" to="-E0" fromLane="1" toLane="0" via=":Junc0_5_0" tl="TLS0" linkIndex="5" dir="s" state="o"/>
    <connection from="E4" to="-E3" fromLane="0" toLane="0" via=":Junc0_6_0" tl="TLS0" linkIndex="6" dir="r" state="O"/>
    <connection from="E4" to="-E1" fromLane="1" toLane="0" via=":Junc0_7_0" tl="TLS0" linkIndex="7" dir="L" state="o"/>
    <connection from="EB0" to="-E4" fromLane="0" toLane="0" via=":Junc0_0_0" tl="TLS0" linkIndex="0" dir="s" state="o"/>
    <connection from="EB0" to="-E2" fromLane="1" toLane="0" via=":Junc0_1_0" tl="TLS0" linkIndex="1" dir="l" state="o"/>
    <connection from="EB1" to="-E10" fromLane="0" toLane="0" via=":Junc1_0_0" tl="TLS1" linkIndex="0" dir="r" state="O"/>
    <connection from="EB1" to="EB0" fromLane="1" toLane="1" via=":Junc1_1_0" tl="TLS1" linkIndex="1" dir="l" state="O"/>

    <connection from=":Junc0_0" to="-E4" fromLane="0" toLane="0" dir="s" state="M"/>
    <connection from=":Junc0_1" to="-E2" fromLane="0" toLane="0" dir="l" state="M"/>
    <connection from=":Junc0_2" to="-E4" fromLane="0" toLane="0" dir="s" state="M"/>
    <connection from=":Junc0_3" to="-E3" fromLane="0" toLane="0" dir="l" state="M"/>
    <connection from=":Junc0_4" to="-E2" fromLane="0" toLane="0" dir="r" state="M"/>
    <connection from=":Junc0_5" to="-E0" fromLane="0" toLane="0" dir="s" state="M"/>
    <connection from=":Junc0_6" to="-E3" fromLane="0" toLane="0" dir="r" state="M"/>
    <connection from=":Junc0_7" to="-E1" fromLane="0" toLane="0" dir="L" state="M"/>
    <connection from=":Junc0_8" to="-E2" fromLane="0" toLane="0" dir="s" state="M"/>
    <connection from=":Junc0_9" to="-E1" fromLane="0" toLane="0" dir="l" state="M"/>
    <connection from=":Junc1_0" to="-E10" fromLane="0" toLane="0" dir="r" state="M"/>
    <connection from=":Junc1_1" to="EB0" fromLane="0" toLane="1" dir="l" state="M"/>
    <connection from=":Junc1_2" to="-E5" fromLane="0" toLane="0" dir="r" state="M"/>
    <connection from=":Junc1_3" to="EB0" fromLane="0" toLane="0" dir="r" state="M"/>
    <connection from=":Junc1_4" to="-E5" fromLane="0" toLane="0" dir="l" state="M"/>

</net>
